
OS:Version,
  {9c7d72ba-fc87-4eb3-befc-2ba5c984d76f}, !- Handle
  2.8.1;                                  !- Version Identifier

OS:Facility,
  {195a051a-6e01-4a4f-a570-7dfb66b5e19a}; !- Handle

OS:Site,
  {ef1a0f62-5b14-4d85-927f-3447905e37e0}, !- Handle
  Bremerton National_WA_USA,              !- Name
  47.49,                                  !- Latitude {deg}
  -122.76,                                !- Longitude {deg}
  -8,                                     !- Time Zone {hr}
  134,                                    !- Elevation {m}
  City;                                   !- Terrain

OS:SimulationControl,
  {fe96daa0-bada-4edd-a6f3-4f8e0c35d661}, !- Handle
  ,                                       !- Do Zone Sizing Calculation
  ,                                       !- Do System Sizing Calculation
  ,                                       !- Do Plant Sizing Calculation
  No,                                     !- Run Simulation for Sizing Periods
  Yes;                                    !- Run Simulation for Weather File Run Periods

OS:Sizing:Parameters,
  {857ed39a-3d12-4fc6-9c74-09632679fa8d}, !- Handle
  1.25,                                   !- Heating Sizing Factor
  1.15;                                   !- Cooling Sizing Factor

OS:Timestep,
  {d45f2ee0-b891-44a2-8546-612851713e3a}, !- Handle
  4;                                      !- Number of Timesteps per Hour

OS:ShadowCalculation,
  {d3d323c1-d21b-4f2e-be35-0992ff14ea9a}, !- Handle
  20,                                     !- Calculation Frequency
  15000;                                  !- Maximum Figures in Shadow Overlap Calculations

OS:HeatBalanceAlgorithm,
  {e274a2bc-6324-4047-b7e0-2cba57560390}, !- Handle
  ConductionTransferFunction,             !- Algorithm
  200;                                    !- Surface Temperature Upper Limit {C}

OS:RunPeriod,
  {f5356993-d228-4c00-873c-857380fc7c37}, !- Handle
  Run Period 1,                           !- Name
  1,                                      !- Begin Month
  1,                                      !- Begin Day of Month
  12,                                     !- End Month
  31,                                     !- End Day of Month
  ,                                       !- Use Weather File Holidays and Special Days
  ,                                       !- Use Weather File Daylight Saving Period
  ,                                       !- Apply Weekend Holiday Rule
  ,                                       !- Use Weather File Rain Indicators
  ,                                       !- Use Weather File Snow Indicators
  ;                                       !- Number of Times Runperiod to be Repeated

OS:LifeCycleCost:Parameters,
  {915edb36-15c8-457d-b93c-d27861e21857}, !- Handle
  ,                                       !- Analysis Type
  ,                                       !- Discounting Convention
  ,                                       !- Inflation Approach
  ,                                       !- Real Discount Rate
  ,                                       !- Nominal Discount Rate
  ,                                       !- Inflation
  ,                                       !- Base Date Month
  ,                                       !- Base Date Year
  ,                                       !- Service Date Month
  ,                                       !- Service Date Year
  ;                                       !- Length of Study Period in Years

OS:WeatherFile,
  {f8caed6b-6bbe-43bf-9f58-edea61e12dfe}, !- Handle
  Bremerton National,                     !- City
  WA,                                     !- State Province Region
  USA,                                    !- Country
  customized weather file,                !- Data Source
  727928,                                 !- WMO Number
  47.49,                                  !- Latitude {deg}
  -122.76,                                !- Longitude {deg}
  -8,                                     !- Time Zone {hr}
  134,                                    !- Elevation {m}
  file:////weather/USA_WA_Bremerton.National.727928_2016.epw, !- Url
  226BE93E;                               !- Checksum

OS:RunPeriodControl:DaylightSavingTime,
  {abaa3613-5aa5-4539-9327-d023dc470c77}, !- Handle
  2nd Sunday in March,                    !- Start Date
  1st Sunday in November;                 !- End Date

OS:YearDescription,
  {74b2f9ba-2b52-48d4-be9d-92960e74cb93}, !- Handle
  2018,                                   !- Calendar Year
  ,                                       !- Day of Week for Start Day
  ;                                       !- Is Leap Year

OS:Site:WaterMainsTemperature,
  {017a45a8-43f3-4ba3-8434-4971271030ab}, !- Handle
  Correlation,                            !- Calculation Method
  ,                                       !- Temperature Schedule Name
  10.7241666666667,                       !- Annual Average Outdoor Air Temperature {C}
  16.67;                                  !- Maximum Difference In Monthly Average Outdoor Air Temperatures {deltaC}

OS:SizingPeriod:DesignDay,
  {d5b126eb-8a91-4473-86e1-44d52fa1b17a}, !- Handle
  Bremerton National Ann Clg .4% Condns DB=>MWB 1, !- Name
  29.9,                                   !- Maximum Dry-Bulb Temperature {C}
  12.7,                                   !- Daily Dry-Bulb Temperature Range {deltaC}
  18.4,                                   !- Humidity Indicating Conditions at Maximum Dry-Bulb
  99726,                                  !- Barometric Pressure {Pa}
  3.4,                                    !- Wind Speed {m/s}
  60,                                     !- Wind Direction {deg}
  0,                                      !- Sky Clearness
  0,                                      !- Rain Indicator
  0,                                      !- Snow Indicator
  21,                                     !- Day of Month
  7,                                      !- Month
  SummerDesignDay,                        !- Day Type
  0,                                      !- Daylight Saving Time Indicator
  Wetbulb,                                !- Humidity Indicating Type
  ,                                       !- Humidity Indicating Day Schedule Name
  DefaultMultipliers,                     !- Dry-Bulb Temperature Range Modifier Type
  ,                                       !- Dry-Bulb Temperature Range Modifier Schedule Name
  ASHRAETau,                              !- Solar Model Indicator
  ,                                       !- Beam Solar Day Schedule Name
  ,                                       !- Diffuse Solar Day Schedule Name
  0.318,                                  !- ASHRAE Taub {dimensionless}
  2.519;                                  !- ASHRAE Taud {dimensionless}

OS:SizingPeriod:DesignDay,
  {dc370c09-ae65-4765-ac24-97660adfb9f3}, !- Handle
  Bremerton National Ann Clg .4% Condns WB=>MDB 1, !- Name
  28.4,                                   !- Maximum Dry-Bulb Temperature {C}
  12.7,                                   !- Daily Dry-Bulb Temperature Range {deltaC}
  19.1,                                   !- Humidity Indicating Conditions at Maximum Dry-Bulb
  99726,                                  !- Barometric Pressure {Pa}
  3.4,                                    !- Wind Speed {m/s}
  60,                                     !- Wind Direction {deg}
  0,                                      !- Sky Clearness
  0,                                      !- Rain Indicator
  0,                                      !- Snow Indicator
  21,                                     !- Day of Month
  7,                                      !- Month
  SummerDesignDay,                        !- Day Type
  0,                                      !- Daylight Saving Time Indicator
  Wetbulb,                                !- Humidity Indicating Type
  ,                                       !- Humidity Indicating Day Schedule Name
  DefaultMultipliers,                     !- Dry-Bulb Temperature Range Modifier Type
  ,                                       !- Dry-Bulb Temperature Range Modifier Schedule Name
  ASHRAETau,                              !- Solar Model Indicator
  ,                                       !- Beam Solar Day Schedule Name
  ,                                       !- Diffuse Solar Day Schedule Name
  0.318,                                  !- ASHRAE Taub {dimensionless}
  2.519;                                  !- ASHRAE Taud {dimensionless}

OS:SizingPeriod:DesignDay,
  {e8d41dfe-c1e6-4efc-a1a3-925c6c085433}, !- Handle
  Bremerton National Ann Clg 1% Condns DB=>MWB 1, !- Name
  27.6,                                   !- Maximum Dry-Bulb Temperature {C}
  12.7,                                   !- Daily Dry-Bulb Temperature Range {deltaC}
  17.5,                                   !- Humidity Indicating Conditions at Maximum Dry-Bulb
  99726,                                  !- Barometric Pressure {Pa}
  3.4,                                    !- Wind Speed {m/s}
  60,                                     !- Wind Direction {deg}
  0,                                      !- Sky Clearness
  0,                                      !- Rain Indicator
  0,                                      !- Snow Indicator
  21,                                     !- Day of Month
  7,                                      !- Month
  SummerDesignDay,                        !- Day Type
  0,                                      !- Daylight Saving Time Indicator
  Wetbulb,                                !- Humidity Indicating Type
  ,                                       !- Humidity Indicating Day Schedule Name
  DefaultMultipliers,                     !- Dry-Bulb Temperature Range Modifier Type
  ,                                       !- Dry-Bulb Temperature Range Modifier Schedule Name
  ASHRAETau,                              !- Solar Model Indicator
  ,                                       !- Beam Solar Day Schedule Name
  ,                                       !- Diffuse Solar Day Schedule Name
  0.318,                                  !- ASHRAE Taub {dimensionless}
  2.519;                                  !- ASHRAE Taud {dimensionless}

OS:SizingPeriod:DesignDay,
  {15b5f996-6967-475b-ae12-39dd799b0be7}, !- Handle
  Bremerton National Ann Clg 2% Condns DP=>MDB 1, !- Name
  19.9,                                   !- Maximum Dry-Bulb Temperature {C}
  12.7,                                   !- Daily Dry-Bulb Temperature Range {deltaC}
  13.6,                                   !- Humidity Indicating Conditions at Maximum Dry-Bulb
  99726,                                  !- Barometric Pressure {Pa}
  3.4,                                    !- Wind Speed {m/s}
  60,                                     !- Wind Direction {deg}
  0,                                      !- Sky Clearness
  0,                                      !- Rain Indicator
  0,                                      !- Snow Indicator
  21,                                     !- Day of Month
  7,                                      !- Month
  SummerDesignDay,                        !- Day Type
  0,                                      !- Daylight Saving Time Indicator
  Dewpoint,                               !- Humidity Indicating Type
  ,                                       !- Humidity Indicating Day Schedule Name
  DefaultMultipliers,                     !- Dry-Bulb Temperature Range Modifier Type
  ,                                       !- Dry-Bulb Temperature Range Modifier Schedule Name
  ASHRAETau,                              !- Solar Model Indicator
  ,                                       !- Beam Solar Day Schedule Name
  ,                                       !- Diffuse Solar Day Schedule Name
  0.318,                                  !- ASHRAE Taub {dimensionless}
  2.519;                                  !- ASHRAE Taud {dimensionless}

OS:SizingPeriod:DesignDay,
  {7302e5a7-d9a0-43a7-aa74-789121606eb4}, !- Handle
  Bremerton National Ann Htg 99% Condns DB 1, !- Name
  -3,                                     !- Maximum Dry-Bulb Temperature {C}
  0,                                      !- Daily Dry-Bulb Temperature Range {deltaC}
  -3,                                     !- Humidity Indicating Conditions at Maximum Dry-Bulb
  99726,                                  !- Barometric Pressure {Pa}
  1.7,                                    !- Wind Speed {m/s}
  40,                                     !- Wind Direction {deg}
  0,                                      !- Sky Clearness
  0,                                      !- Rain Indicator
  0,                                      !- Snow Indicator
  21,                                     !- Day of Month
  12,                                     !- Month
  WinterDesignDay,                        !- Day Type
  0,                                      !- Daylight Saving Time Indicator
  Wetbulb,                                !- Humidity Indicating Type
  ,                                       !- Humidity Indicating Day Schedule Name
  DefaultMultipliers,                     !- Dry-Bulb Temperature Range Modifier Type
  ,                                       !- Dry-Bulb Temperature Range Modifier Schedule Name
  ASHRAEClearSky;                         !- Solar Model Indicator

OS:SizingPeriod:DesignDay,
  {771f43cf-c573-4011-92fc-b629356c6b67}, !- Handle
  Bremerton National Ann Htg 99.6% Condns DB 1, !- Name
  -5.2,                                   !- Maximum Dry-Bulb Temperature {C}
  0,                                      !- Daily Dry-Bulb Temperature Range {deltaC}
  -5.2,                                   !- Humidity Indicating Conditions at Maximum Dry-Bulb
  99726,                                  !- Barometric Pressure {Pa}
  1.7,                                    !- Wind Speed {m/s}
  40,                                     !- Wind Direction {deg}
  0,                                      !- Sky Clearness
  0,                                      !- Rain Indicator
  0,                                      !- Snow Indicator
  21,                                     !- Day of Month
  12,                                     !- Month
  WinterDesignDay,                        !- Day Type
  0,                                      !- Daylight Saving Time Indicator
  Wetbulb,                                !- Humidity Indicating Type
  ,                                       !- Humidity Indicating Day Schedule Name
  DefaultMultipliers,                     !- Dry-Bulb Temperature Range Modifier Type
  ,                                       !- Dry-Bulb Temperature Range Modifier Schedule Name
  ASHRAEClearSky;                         !- Solar Model Indicator

OS:SizingPeriod:DesignDay,
  {00aafc6f-9f5f-44c9-9da1-a4b57740d9c0}, !- Handle
  Bremerton National Ann Htg Wind 99% Condns WS=>MCDB 1, !- Name
  6.3,                                    !- Maximum Dry-Bulb Temperature {C}
  0,                                      !- Daily Dry-Bulb Temperature Range {deltaC}
  6.3,                                    !- Humidity Indicating Conditions at Maximum Dry-Bulb
  99726,                                  !- Barometric Pressure {Pa}
  8.9,                                    !- Wind Speed {m/s}
  40,                                     !- Wind Direction {deg}
  0,                                      !- Sky Clearness
  0,                                      !- Rain Indicator
  0,                                      !- Snow Indicator
  21,                                     !- Day of Month
  12,                                     !- Month
  WinterDesignDay,                        !- Day Type
  0,                                      !- Daylight Saving Time Indicator
  Wetbulb,                                !- Humidity Indicating Type
  ,                                       !- Humidity Indicating Day Schedule Name
  DefaultMultipliers,                     !- Dry-Bulb Temperature Range Modifier Type
  ,                                       !- Dry-Bulb Temperature Range Modifier Schedule Name
  ASHRAEClearSky;                         !- Solar Model Indicator

OS:SizingPeriod:DesignDay,
  {5134426a-ef64-4a8e-9ff8-0ebe67b475e8}, !- Handle
  Bremerton National April .4% Condns DB=>MCWB 1, !- Name
  23.7,                                   !- Maximum Dry-Bulb Temperature {C}
  9.8,                                    !- Daily Dry-Bulb Temperature Range {deltaC}
  13.9,                                   !- Humidity Indicating Conditions at Maximum Dry-Bulb
  99726,                                  !- Barometric Pressure {Pa}
  3.4,                                    !- Wind Speed {m/s}
  60,                                     !- Wind Direction {deg}
  0,                                      !- Sky Clearness
  0,                                      !- Rain Indicator
  0,                                      !- Snow Indicator
  21,                                     !- Day of Month
  4,                                      !- Month
  SummerDesignDay,                        !- Day Type
  0,                                      !- Daylight Saving Time Indicator
  Wetbulb,                                !- Humidity Indicating Type
  ,                                       !- Humidity Indicating Day Schedule Name
  DefaultMultipliers,                     !- Dry-Bulb Temperature Range Modifier Type
  ,                                       !- Dry-Bulb Temperature Range Modifier Schedule Name
  ASHRAETau,                              !- Solar Model Indicator
  ,                                       !- Beam Solar Day Schedule Name
  ,                                       !- Diffuse Solar Day Schedule Name
  0.331,                                  !- ASHRAE Taub {dimensionless}
  2.473;                                  !- ASHRAE Taud {dimensionless}

OS:SizingPeriod:DesignDay,
  {c75908e9-9336-4c62-86e9-3be32f4754d4}, !- Handle
  Bremerton National April .4% Condns WB=>MCDB 1, !- Name
  21.8,                                   !- Maximum Dry-Bulb Temperature {C}
  9.8,                                    !- Daily Dry-Bulb Temperature Range {deltaC}
  14.6,                                   !- Humidity Indicating Conditions at Maximum Dry-Bulb
  99726,                                  !- Barometric Pressure {Pa}
  3.4,                                    !- Wind Speed {m/s}
  60,                                     !- Wind Direction {deg}
  0,                                      !- Sky Clearness
  0,                                      !- Rain Indicator
  0,                                      !- Snow Indicator
  21,                                     !- Day of Month
  4,                                      !- Month
  SummerDesignDay,                        !- Day Type
  0,                                      !- Daylight Saving Time Indicator
  Wetbulb,                                !- Humidity Indicating Type
  ,                                       !- Humidity Indicating Day Schedule Name
  DefaultMultipliers,                     !- Dry-Bulb Temperature Range Modifier Type
  ,                                       !- Dry-Bulb Temperature Range Modifier Schedule Name
  ASHRAETau,                              !- Solar Model Indicator
  ,                                       !- Beam Solar Day Schedule Name
  ,                                       !- Diffuse Solar Day Schedule Name
  0.331,                                  !- ASHRAE Taub {dimensionless}
  2.473;                                  !- ASHRAE Taud {dimensionless}

OS:SizingPeriod:DesignDay,
  {79d079d7-181e-4ff5-ba2a-ccb77bb350e1}, !- Handle
  Bremerton National August .4% Condns DB=>MCWB 1, !- Name
  32.2,                                   !- Maximum Dry-Bulb Temperature {C}
  12.8,                                   !- Daily Dry-Bulb Temperature Range {deltaC}
  19.2,                                   !- Humidity Indicating Conditions at Maximum Dry-Bulb
  99726,                                  !- Barometric Pressure {Pa}
  3.4,                                    !- Wind Speed {m/s}
  60,                                     !- Wind Direction {deg}
  0,                                      !- Sky Clearness
  0,                                      !- Rain Indicator
  0,                                      !- Snow Indicator
  21,                                     !- Day of Month
  8,                                      !- Month
  SummerDesignDay,                        !- Day Type
  0,                                      !- Daylight Saving Time Indicator
  Wetbulb,                                !- Humidity Indicating Type
  ,                                       !- Humidity Indicating Day Schedule Name
  DefaultMultipliers,                     !- Dry-Bulb Temperature Range Modifier Type
  ,                                       !- Dry-Bulb Temperature Range Modifier Schedule Name
  ASHRAETau,                              !- Solar Model Indicator
  ,                                       !- Beam Solar Day Schedule Name
  ,                                       !- Diffuse Solar Day Schedule Name
  0.324,                                  !- ASHRAE Taub {dimensionless}
  2.554;                                  !- ASHRAE Taud {dimensionless}

OS:SizingPeriod:DesignDay,
  {c4980799-e57f-4acc-b1f4-32ac91cb7f49}, !- Handle
  Bremerton National August .4% Condns WB=>MCDB 1, !- Name
  29.3,                                   !- Maximum Dry-Bulb Temperature {C}
  12.8,                                   !- Daily Dry-Bulb Temperature Range {deltaC}
  20.1,                                   !- Humidity Indicating Conditions at Maximum Dry-Bulb
  99726,                                  !- Barometric Pressure {Pa}
  3.4,                                    !- Wind Speed {m/s}
  60,                                     !- Wind Direction {deg}
  0,                                      !- Sky Clearness
  0,                                      !- Rain Indicator
  0,                                      !- Snow Indicator
  21,                                     !- Day of Month
  8,                                      !- Month
  SummerDesignDay,                        !- Day Type
  0,                                      !- Daylight Saving Time Indicator
  Wetbulb,                                !- Humidity Indicating Type
  ,                                       !- Humidity Indicating Day Schedule Name
  DefaultMultipliers,                     !- Dry-Bulb Temperature Range Modifier Type
  ,                                       !- Dry-Bulb Temperature Range Modifier Schedule Name
  ASHRAETau,                              !- Solar Model Indicator
  ,                                       !- Beam Solar Day Schedule Name
  ,                                       !- Diffuse Solar Day Schedule Name
  0.324,                                  !- ASHRAE Taub {dimensionless}
  2.554;                                  !- ASHRAE Taud {dimensionless}

OS:SizingPeriod:DesignDay,
  {48ef3e3b-3d16-4cb3-9552-e0afa2b5635e}, !- Handle
  Bremerton National December .4% Condns DB=>MCWB 1, !- Name
  12.3,                                   !- Maximum Dry-Bulb Temperature {C}
  5.5,                                    !- Daily Dry-Bulb Temperature Range {deltaC}
  11.3,                                   !- Humidity Indicating Conditions at Maximum Dry-Bulb
  99726,                                  !- Barometric Pressure {Pa}
  3.4,                                    !- Wind Speed {m/s}
  60,                                     !- Wind Direction {deg}
  0,                                      !- Sky Clearness
  0,                                      !- Rain Indicator
  0,                                      !- Snow Indicator
  21,                                     !- Day of Month
  12,                                     !- Month
  SummerDesignDay,                        !- Day Type
  0,                                      !- Daylight Saving Time Indicator
  Wetbulb,                                !- Humidity Indicating Type
  ,                                       !- Humidity Indicating Day Schedule Name
  DefaultMultipliers,                     !- Dry-Bulb Temperature Range Modifier Type
  ,                                       !- Dry-Bulb Temperature Range Modifier Schedule Name
  ASHRAETau,                              !- Solar Model Indicator
  ,                                       !- Beam Solar Day Schedule Name
  ,                                       !- Diffuse Solar Day Schedule Name
  0.317,                                  !- ASHRAE Taub {dimensionless}
  2.616;                                  !- ASHRAE Taud {dimensionless}

OS:SizingPeriod:DesignDay,
  {c33ad1df-604b-419d-938e-e08d41ce0c80}, !- Handle
  Bremerton National December .4% Condns WB=>MCDB 1, !- Name
  11.9,                                   !- Maximum Dry-Bulb Temperature {C}
  5.5,                                    !- Daily Dry-Bulb Temperature Range {deltaC}
  11.6,                                   !- Humidity Indicating Conditions at Maximum Dry-Bulb
  99726,                                  !- Barometric Pressure {Pa}
  3.4,                                    !- Wind Speed {m/s}
  60,                                     !- Wind Direction {deg}
  0,                                      !- Sky Clearness
  0,                                      !- Rain Indicator
  0,                                      !- Snow Indicator
  21,                                     !- Day of Month
  12,                                     !- Month
  SummerDesignDay,                        !- Day Type
  0,                                      !- Daylight Saving Time Indicator
  Wetbulb,                                !- Humidity Indicating Type
  ,                                       !- Humidity Indicating Day Schedule Name
  DefaultMultipliers,                     !- Dry-Bulb Temperature Range Modifier Type
  ,                                       !- Dry-Bulb Temperature Range Modifier Schedule Name
  ASHRAETau,                              !- Solar Model Indicator
  ,                                       !- Beam Solar Day Schedule Name
  ,                                       !- Diffuse Solar Day Schedule Name
  0.317,                                  !- ASHRAE Taub {dimensionless}
  2.616;                                  !- ASHRAE Taud {dimensionless}

OS:SizingPeriod:DesignDay,
  {eaa13bcd-e6ae-4d5c-9a69-c93da500fd98}, !- Handle
  Bremerton National February .4% Condns DB=>MCWB 1, !- Name
  14.9,                                   !- Maximum Dry-Bulb Temperature {C}
  8.1,                                    !- Daily Dry-Bulb Temperature Range {deltaC}
  8.2,                                    !- Humidity Indicating Conditions at Maximum Dry-Bulb
  99726,                                  !- Barometric Pressure {Pa}
  3.4,                                    !- Wind Speed {m/s}
  60,                                     !- Wind Direction {deg}
  0,                                      !- Sky Clearness
  0,                                      !- Rain Indicator
  0,                                      !- Snow Indicator
  21,                                     !- Day of Month
  2,                                      !- Month
  SummerDesignDay,                        !- Day Type
  0,                                      !- Daylight Saving Time Indicator
  Wetbulb,                                !- Humidity Indicating Type
  ,                                       !- Humidity Indicating Day Schedule Name
  DefaultMultipliers,                     !- Dry-Bulb Temperature Range Modifier Type
  ,                                       !- Dry-Bulb Temperature Range Modifier Schedule Name
  ASHRAETau,                              !- Solar Model Indicator
  ,                                       !- Beam Solar Day Schedule Name
  ,                                       !- Diffuse Solar Day Schedule Name
  0.316,                                  !- ASHRAE Taub {dimensionless}
  2.609;                                  !- ASHRAE Taud {dimensionless}

OS:SizingPeriod:DesignDay,
  {5748c7d6-a907-4fe5-985a-238e6f919e7c}, !- Handle
  Bremerton National February .4% Condns WB=>MCDB 1, !- Name
  11.8,                                   !- Maximum Dry-Bulb Temperature {C}
  8.1,                                    !- Daily Dry-Bulb Temperature Range {deltaC}
  10.7,                                   !- Humidity Indicating Conditions at Maximum Dry-Bulb
  99726,                                  !- Barometric Pressure {Pa}
  3.4,                                    !- Wind Speed {m/s}
  60,                                     !- Wind Direction {deg}
  0,                                      !- Sky Clearness
  0,                                      !- Rain Indicator
  0,                                      !- Snow Indicator
  21,                                     !- Day of Month
  2,                                      !- Month
  SummerDesignDay,                        !- Day Type
  0,                                      !- Daylight Saving Time Indicator
  Wetbulb,                                !- Humidity Indicating Type
  ,                                       !- Humidity Indicating Day Schedule Name
  DefaultMultipliers,                     !- Dry-Bulb Temperature Range Modifier Type
  ,                                       !- Dry-Bulb Temperature Range Modifier Schedule Name
  ASHRAETau,                              !- Solar Model Indicator
  ,                                       !- Beam Solar Day Schedule Name
  ,                                       !- Diffuse Solar Day Schedule Name
  0.316,                                  !- ASHRAE Taub {dimensionless}
  2.609;                                  !- ASHRAE Taud {dimensionless}

OS:SizingPeriod:DesignDay,
  {323d0423-5e24-4e1b-a567-dfe258d751ab}, !- Handle