
OS:Version,
  {56154ff2-0a0e-4fc4-b712-e885e41bd399}, !- Handle
  2.8.1;                                  !- Version Identifier

OS:Facility,
  {d2bdfc2b-005e-480e-91d5-8af90a5dcd70}; !- Handle

OS:Site,
  {ea1fbe2f-1930-4a30-9e27-477bba3f3acf}, !- Handle
  Dodge Co_WI_USA,                        !- Name
  43.43,                                  !- Latitude {deg}
  -88.7,                                  !- Longitude {deg}
  -6,                                     !- Time Zone {hr}
  285,                                    !- Elevation {m}
  City;                                   !- Terrain

OS:SimulationControl,
  {bf69b8ee-906b-48d7-a835-44e49bd2f5fb}, !- Handle
  ,                                       !- Do Zone Sizing Calculation
  ,                                       !- Do System Sizing Calculation
  ,                                       !- Do Plant Sizing Calculation
  No,                                     !- Run Simulation for Sizing Periods
  Yes;                                    !- Run Simulation for Weather File Run Periods

OS:Sizing:Parameters,
  {5e384e28-04dd-47f6-bb5f-d178072bd526}, !- Handle
  1.25,                                   !- Heating Sizing Factor
  1.15;                                   !- Cooling Sizing Factor

OS:Timestep,
  {60ce217a-1792-41cf-a089-9cb0a74d361d}, !- Handle
  4;                                      !- Number of Timesteps per Hour

OS:ShadowCalculation,
  {c273385f-23a4-41b0-a5a8-916468386170}, !- Handle
  20,                                     !- Calculation Frequency
  15000;                                  !- Maximum Figures in Shadow Overlap Calculations

OS:HeatBalanceAlgorithm,
  {77b189a9-d1a7-4768-90e3-b0bbe8401afb}, !- Handle
  ConductionTransferFunction,             !- Algorithm
  200;                                    !- Surface Temperature Upper Limit {C}

OS:RunPeriod,
  {746eb064-bd88-45b9-b9da-f8aa0978b680}, !- Handle
  Run Period 1,                           !- Name
  1,                                      !- Begin Month
  1,                                      !- Begin Day of Month
  12,                                     !- End Month
  31,                                     !- End Day of Month
  ,                                       !- Use Weather File Holidays and Special Days
  ,                                       !- Use Weather File Daylight Saving Period
  ,                                       !- Apply Weekend Holiday Rule
  ,                                       !- Use Weather File Rain Indicators
  ,                                       !- Use Weather File Snow Indicators
  ;                                       !- Number of Times Runperiod to be Repeated

OS:LifeCycleCost:Parameters,
  {dd5cac78-bd2c-41b9-8341-845a38306a45}, !- Handle
  ,                                       !- Analysis Type
  ,                                       !- Discounting Convention
  ,                                       !- Inflation Approach
  ,                                       !- Real Discount Rate
  ,                                       !- Nominal Discount Rate
  ,                                       !- Inflation
  ,                                       !- Base Date Month
  ,                                       !- Base Date Year
  ,                                       !- Service Date Month
  ,                                       !- Service Date Year
  ;                                       !- Length of Study Period in Years

OS:WeatherFile,
  {bfe422b7-0e10-4cac-b777-4d0b7fc678a7}, !- Handle
  Dodge Co,                               !- City
  WI,                                     !- State Province Region
  USA,                                    !- Country
  customized weather file,                !- Data Source
  726509,                                 !- WMO Number
  43.43,                                  !- Latitude {deg}
  -88.7,                                  !- Longitude {deg}
  -6,                                     !- Time Zone {hr}
  285,                                    !- Elevation {m}
  file:////weather/USA_WI_Dodge.Co.726509_2016.epw, !- Url
  226BE93E;                               !- Checksum

OS:RunPeriodControl:DaylightSavingTime,
  {ac254fb5-8182-4d82-9e7a-cf008369c124}, !- Handle
  2nd Sunday in March,                    !- Start Date
  1st Sunday in November;                 !- End Date

OS:YearDescription,
  {a73157bf-a06e-4ed7-b199-3264336f4da2}, !- Handle
  2018,                                   !- Calendar Year
  ,                                       !- Day of Week for Start Day
  ;                                       !- Is Leap Year

OS:Site:WaterMainsTemperature,
  {73b24f27-f595-4e53-a920-02c40ed2632a}, !- Handle
  Correlation,                            !- Calculation Method
  ,                                       !- Temperature Schedule Name
  8.76916666666667,                       !- Annual Average Outdoor Air Temperature {C}
  28.25;                                  !- Maximum Difference In Monthly Average Outdoor Air Temperatures {deltaC}

OS:SizingPeriod:DesignDay,
  {795b49d7-4b3a-46cd-8125-e86fa78427d7}, !- Handle
  Dodge Co Ann Clg .4% Condns DB=>MWB 1,  !- Name
  31.1,                                   !- Maximum Dry-Bulb Temperature {C}
  10.1,                                   !- Daily Dry-Bulb Temperature Range {deltaC}
  23.9,                                   !- Humidity Indicating Conditions at Maximum Dry-Bulb
  97948,                                  !- Barometric Pressure {Pa}
  4.8,                                    !- Wind Speed {m/s}
  210,                                    !- Wind Direction {deg}
  0,                                      !- Sky Clearness
  0,                                      !- Rain Indicator
  0,                                      !- Snow Indicator
  21,                                     !- Day of Month
  7,                                      !- Month
  SummerDesignDay,                        !- Day Type
  0,                                      !- Daylight Saving Time Indicator
  Wetbulb,                                !- Humidity Indicating Type
  ,                                       !- Humidity Indicating Day Schedule Name
  DefaultMultipliers,                     !- Dry-Bulb Temperature Range Modifier Type
  ,                                       !- Dry-Bulb Temperature Range Modifier Schedule Name
  ASHRAETau,                              !- Solar Model Indicator
  ,                                       !- Beam Solar Day Schedule Name
  ,                                       !- Diffuse Solar Day Schedule Name
  0.391,                                  !- ASHRAE Taub {dimensionless}
  2.254;                                  !- ASHRAE Taud {dimensionless}

OS:SizingPeriod:DesignDay,
  {393306ac-0b1f-489e-9cc1-e64ccbf89aed}, !- Handle
  Dodge Co Ann Clg .4% Condns WB=>MDB 1,  !- Name
  28.9,                                   !- Maximum Dry-Bulb Temperature {C}
  10.1,                                   !- Daily Dry-Bulb Temperature Range {deltaC}
  25.5,                                   !- Humidity Indicating Conditions at Maximum Dry-Bulb
  97948,                                  !- Barometric Pressure {Pa}
  4.8,                                    !- Wind Speed {m/s}
  210,                                    !- Wind Direction {deg}
  0,                                      !- Sky Clearness
  0,                                      !- Rain Indicator
  0,                                      !- Snow Indicator
  21,                                     !- Day of Month
  7,                                      !- Month
  SummerDesignDay,                        !- Day Type
  0,                                      !- Daylight Saving Time Indicator
  Wetbulb,                                !- Humidity Indicating Type
  ,                                       !- Humidity Indicating Day Schedule Name
  DefaultMultipliers,                     !- Dry-Bulb Temperature Range Modifier Type
  ,                                       !- Dry-Bulb Temperature Range Modifier Schedule Name
  ASHRAETau,                              !- Solar Model Indicator
  ,                                       !- Beam Solar Day Schedule Name
  ,                                       !- Diffuse Solar Day Schedule Name
  0.391,                                  !- ASHRAE Taub {dimensionless}
  2.254;                                  !- ASHRAE Taud {dimensionless}

OS:SizingPeriod:DesignDay,
  {77368323-9251-4573-bba6-9f9e716c63b4}, !- Handle
  Dodge Co Ann Clg 1% Condns DB=>MWB 1,   !- Name
  29,                                     !- Maximum Dry-Bulb Temperature {C}
  10.1,                                   !- Daily Dry-Bulb Temperature Range {deltaC}
  22.5,                                   !- Humidity Indicating Conditions at Maximum Dry-Bulb
  97948,                                  !- Barometric Pressure {Pa}
  4.8,                                    !- Wind Speed {m/s}
  210,                                    !- Wind Direction {deg}
  0,                                      !- Sky Clearness
  0,                                      !- Rain Indicator
  0,                                      !- Snow Indicator
  21,                                     !- Day of Month
  7,                                      !- Month
  SummerDesignDay,                        !- Day Type
  0,                                      !- Daylight Saving Time Indicator
  Wetbulb,                                !- Humidity Indicating Type
  ,                                       !- Humidity Indicating Day Schedule Name
  DefaultMultipliers,                     !- Dry-Bulb Temperature Range Modifier Type
  ,                                       !- Dry-Bulb Temperature Range Modifier Schedule Name
  ASHRAETau,                              !- Solar Model Indicator
  ,                                       !- Beam Solar Day Schedule Name
  ,                                       !- Diffuse Solar Day Schedule Name
  0.391,                                  !- ASHRAE Taub {dimensionless}
  2.254;                                  !- ASHRAE Taud {dimensionless}

OS:SizingPeriod:DesignDay,
  {0613e464-d30a-4141-b99a-06faec42f13b}, !- Handle
  Dodge Co Ann Clg 2% Condns DP=>MDB 1,   !- Name
  25.3,                                   !- Maximum Dry-Bulb Temperature {C}
  10.1,                                   !- Daily Dry-Bulb Temperature Range {deltaC}
  22.4,                                   !- Humidity Indicating Conditions at Maximum Dry-Bulb
  97948,                                  !- Barometric Pressure {Pa}
  4.8,                                    !- Wind Speed {m/s}
  210,                                    !- Wind Direction {deg}
  0,                                      !- Sky Clearness
  0,                                      !- Rain Indicator
  0,                                      !- Snow Indicator
  21,                                     !- Day of Month
  7,                                      !- Month
  SummerDesignDay,                        !- Day Type
  0,                                      !- Daylight Saving Time Indicator
  Dewpoint,                               !- Humidity Indicating Type
  ,                                       !- Humidity Indicating Day Schedule Name
  DefaultMultipliers,                     !- Dry-Bulb Temperature Range Modifier Type
  ,                                       !- Dry-Bulb Temperature Range Modifier Schedule Name
  ASHRAETau,                              !- Solar Model Indicator
  ,                                       !- Beam Solar Day Schedule Name
  ,                                       !- Diffuse Solar Day Schedule Name
  0.391,                                  !- ASHRAE Taub {dimensionless}
  2.254;                                  !- ASHRAE Taud {dimensionless}

OS:SizingPeriod:DesignDay,
  {777c5062-86e0-48e5-9d03-17cc620426fe}, !- Handle
  Dodge Co Ann Htg 99% Condns DB 1,       !- Name
  -17.7,                                  !- Maximum Dry-Bulb Temperature {C}
  0,                                      !- Daily Dry-Bulb Temperature Range {deltaC}
  -17.7,                                  !- Humidity Indicating Conditions at Maximum Dry-Bulb
  97948,                                  !- Barometric Pressure {Pa}
  2.4,                                    !- Wind Speed {m/s}
  290,                                    !- Wind Direction {deg}
  0,                                      !- Sky Clearness
  0,                                      !- Rain Indicator
  0,                                      !- Snow Indicator
  21,                                     !- Day of Month
  1,                                      !- Month
  WinterDesignDay,                        !- Day Type
  0,                                      !- Daylight Saving Time Indicator
  Wetbulb,                                !- Humidity Indicating Type
  ,                                       !- Humidity Indicating Day Schedule Name
  DefaultMultipliers,                     !- Dry-Bulb Temperature Range Modifier Type
  ,                                       !- Dry-Bulb Temperature Range Modifier Schedule Name
  ASHRAEClearSky;                         !- Solar Model Indicator

OS:SizingPeriod:DesignDay,
  {bdede853-eee8-430f-8a6a-641aa110b48d}, !- Handle
  Dodge Co Ann Htg 99.6% Condns DB 1,     !- Name
  -20.1,                                  !- Maximum Dry-Bulb Temperature {C}
  0,                                      !- Daily Dry-Bulb Temperature Range {deltaC}
  -20.1,                                  !- Humidity Indicating Conditions at Maximum Dry-Bulb
  97948,                                  !- Barometric Pressure {Pa}
  2.4,                                    !- Wind Speed {m/s}
  290,                                    !- Wind Direction {deg}
  0,                                      !- Sky Clearness
  0,                                      !- Rain Indicator
  0,                                      !- Snow Indicator
  21,                                     !- Day of Month
  1,                                      !- Month
  WinterDesignDay,                        !- Day Type
  0,                                      !- Daylight Saving Time Indicator
  Wetbulb,                                !- Humidity Indicating Type
  ,                                       !- Humidity Indicating Day Schedule Name
  DefaultMultipliers,                     !- Dry-Bulb Temperature Range Modifier Type
  ,                                       !- Dry-Bulb Temperature Range Modifier Schedule Name
  ASHRAEClearSky;                         !- Solar Model Indicator

OS:SizingPeriod:DesignDay,
  {0df69467-933e-437d-9100-af53013e8117}, !- Handle
  Dodge Co Ann Htg Wind 99% Condns WS=>MCDB 1, !- Name
  -2,                                     !- Maximum Dry-Bulb Temperature {C}
  0,                                      !- Daily Dry-Bulb Temperature Range {deltaC}
  -2,                                     !- Humidity Indicating Conditions at Maximum Dry-Bulb
  97948,                                  !- Barometric Pressure {Pa}
  9.3,                                    !- Wind Speed {m/s}
  290,                                    !- Wind Direction {deg}
  0,                                      !- Sky Clearness
  0,                                      !- Rain Indicator
  0,                                      !- Snow Indicator
  21,                                     !- Day of Month
  1,                                      !- Month
  WinterDesignDay,                        !- Day Type
  0,                                      !- Daylight Saving Time Indicator
  Wetbulb,                                !- Humidity Indicating Type
  ,                                       !- Humidity Indicating Day Schedule Name
  DefaultMultipliers,                     !- Dry-Bulb Temperature Range Modifier Type
  ,                                       !- Dry-Bulb Temperature Range Modifier Schedule Name
  ASHRAEClearSky;                         !- Solar Model Indicator

OS:SizingPeriod:DesignDay,
  {17182241-5a95-4acd-b323-0d760dbab277}, !- Handle
  Dodge Co April .4% Condns DB=>MCWB 1,   !- Name
  27.4,                                   !- Maximum Dry-Bulb Temperature {C}
  10.5,                                   !- Daily Dry-Bulb Temperature Range {deltaC}
  16.4,                                   !- Humidity Indicating Conditions at Maximum Dry-Bulb
  97948,                                  !- Barometric Pressure {Pa}
  4.8,                                    !- Wind Speed {m/s}
  210,                                    !- Wind Direction {deg}
  0,                                      !- Sky Clearness
  0,                                      !- Rain Indicator
  0,                                      !- Snow Indicator
  21,                                     !- Day of Month
  4,                                      !- Month
  SummerDesignDay,                        !- Day Type
  0,                                      !- Daylight Saving Time Indicator
  Wetbulb,                                !- Humidity Indicating Type
  ,                                       !- Humidity Indicating Day Schedule Name
  DefaultMultipliers,                     !- Dry-Bulb Temperature Range Modifier Type
  ,                                       !- Dry-Bulb Temperature Range Modifier Schedule Name
  ASHRAETau,                              !- Solar Model Indicator
  ,                                       !- Beam Solar Day Schedule Name
  ,                                       !- Diffuse Solar Day Schedule Name
  0.335,                                  !- ASHRAE Taub {dimensionless}
  2.405;                                  !- ASHRAE Taud {dimensionless}

OS:SizingPeriod:DesignDay,
  {752ce6fe-d53e-4469-ba6b-cf6870f0fb33}, !- Handle
  Dodge Co April .4% Condns WB=>MCDB 1,   !- Name
  24.6,                                   !- Maximum Dry-Bulb Temperature {C}
  10.5,                                   !- Daily Dry-Bulb Temperature Range {deltaC}
  18.7,                                   !- Humidity Indicating Conditions at Maximum Dry-Bulb
  97948,                                  !- Barometric Pressure {Pa}
  4.8,                                    !- Wind Speed {m/s}
  210,                                    !- Wind Direction {deg}
  0,                                      !- Sky Clearness
  0,                                      !- Rain Indicator
  0,                                      !- Snow Indicator
  21,                                     !- Day of Month
  4,                                      !- Month
  SummerDesignDay,                        !- Day Type
  0,                                      !- Daylight Saving Time Indicator
  Wetbulb,                                !- Humidity Indicating Type
  ,                                       !- Humidity Indicating Day Schedule Name
  DefaultMultipliers,                     !- Dry-Bulb Temperature Range Modifier Type
  ,                                       !- Dry-Bulb Temperature Range Modifier Schedule Name
  ASHRAETau,                              !- Solar Model Indicator
  ,                                       !- Beam Solar Day Schedule Name
  ,                                       !- Diffuse Solar Day Schedule Name
  0.335,                                  !- ASHRAE Taub {dimensionless}
  2.405;                                  !- ASHRAE Taud {dimensionless}

OS:SizingPeriod:DesignDay,
  {0a9f2ac4-0cdb-4517-8965-33bd3937966f}, !- Handle
  Dodge Co August .4% Condns DB=>MCWB 1,  !- Name
  32.1,                                   !- Maximum Dry-Bulb Temperature {C}
  9.7,                                    !- Daily Dry-Bulb Temperature Range {deltaC}
  25.6,                                   !- Humidity Indicating Conditions at Maximum Dry-Bulb
  97948,                                  !- Barometric Pressure {Pa}
  4.8,                                    !- Wind Speed {m/s}
  210,                                    !- Wind Direction {deg}
  0,                                      !- Sky Clearness
  0,                                      !- Rain Indicator
  0,                                      !- Snow Indicator
  21,                                     !- Day of Month
  8,                                      !- Month
  SummerDesignDay,                        !- Day Type
  0,                                      !- Daylight Saving Time Indicator
  Wetbulb,                                !- Humidity Indicating Type
  ,                                       !- Humidity Indicating Day Schedule Name
  DefaultMultipliers,                     !- Dry-Bulb Temperature Range Modifier Type
  ,                                       !- Dry-Bulb Temperature Range Modifier Schedule Name
  ASHRAETau,                              !- Solar Model Indicator
  ,                                       !- Beam Solar Day Schedule Name
  ,                                       !- Diffuse Solar Day Schedule Name
  0.374,                                  !- ASHRAE Taub {dimensionless}
  2.353;                                  !- ASHRAE Taud {dimensionless}

OS:SizingPeriod:DesignDay,
  {1c36b15d-101f-471b-a66e-dae19325de80}, !- Handle
  Dodge Co August .4% Condns WB=>MCDB 1,  !- Name
  29.5,                                   !- Maximum Dry-Bulb Temperature {C}
  9.7,                                    !- Daily Dry-Bulb Temperature Range {deltaC}
  26.4,                                   !- Humidity Indicating Conditions at Maximum Dry-Bulb
  97948,                                  !- Barometric Pressure {Pa}
  4.8,                                    !- Wind Speed {m/s}
  210,                                    !- Wind Direction {deg}
  0,                                      !- Sky Clearness
  0,                                      !- Rain Indicator
  0,                                      !- Snow Indicator
  21,                                     !- Day of Month
  8,                                      !- Month
  SummerDesignDay,                        !- Day Type
  0,                                      !- Daylight Saving Time Indicator
  Wetbulb,                                !- Humidity Indicating Type
  ,                                       !- Humidity Indicating Day Schedule Name
  DefaultMultipliers,                     !- Dry-Bulb Temperature Range Modifier Type
  ,                                       !- Dry-Bulb Temperature Range Modifier Schedule Name
  ASHRAETau,                              !- Solar Model Indicator
  ,                                       !- Beam Solar Day Schedule Name
  ,                                       !- Diffuse Solar Day Schedule Name
  0.374,                                  !- ASHRAE Taub {dimensionless}
  2.353;                                  !- ASHRAE Taud {dimensionless}

OS:SizingPeriod:DesignDay,
  {50f69408-e739-4db6-a0ff-24b0f43978c8}, !- Handle
  Dodge Co December .4% Condns DB=>MCWB 1, !- Name
  14,                                     !- Maximum Dry-Bulb Temperature {C}
  7.3,                                    !- Daily Dry-Bulb Temperature Range {deltaC}
  12.8,                                   !- Humidity Indicating Conditions at Maximum Dry-Bulb
  97948,                                  !- Barometric Pressure {Pa}
  4.8,                                    !- Wind Speed {m/s}
  210,                                    !- Wind Direction {deg}
  0,                                      !- Sky Clearness
  0,                                      !- Rain Indicator
  0,                                      !- Snow Indicator
  21,                                     !- Day of Month
  12,                                     !- Month
  SummerDesignDay,                        !- Day Type
  0,                                      !- Daylight Saving Time Indicator
  Wetbulb,                                !- Humidity Indicating Type
  ,                                       !- Humidity Indicating Day Schedule Name
  DefaultMultipliers,                     !- Dry-Bulb Temperature Range Modifier Type
  ,                                       !- Dry-Bulb Temperature Range Modifier Schedule Name
  ASHRAETau,                              !- Solar Model Indicator
  ,                                       !- Beam Solar Day Schedule Name
  ,                                       !- Diffuse Solar Day Schedule Name
  0.288,                                  !- ASHRAE Taub {dimensionless}
  2.571;                                  !- ASHRAE Taud {dimensionless}

OS:SizingPeriod:DesignDay,
  {d461d9a2-7889-412b-b785-d4dd16801026}, !- Handle
  Dodge Co December .4% Condns WB=>MCDB 1, !- Name
  13.9,                                   !- Maximum Dry-Bulb Temperature {C}
  7.3,                                    !- Daily Dry-Bulb Temperature Range {deltaC}
  13,                                     !- Humidity Indicating Conditions at Maximum Dry-Bulb
  97948,                                  !- Barometric Pressure {Pa}
  4.8,                                    !- Wind Speed {m/s}
  210,                                    !- Wind Direction {deg}
  0,                                      !- Sky Clearness
  0,                                      !- Rain Indicator
  0,                                      !- Snow Indicator
  21,                                     !- Day of Month
  12,                                     !- Month
  SummerDesignDay,                        !- Day Type
  0,                                      !- Daylight Saving Time Indicator
  Wetbulb,                                !- Humidity Indicating Type
  ,                                       !- Humidity Indicating Day Schedule Name
  DefaultMultipliers,                     !- Dry-Bulb Temperature Range Modifier Type
  ,                                       !- Dry-Bulb Temperature Range Modifier Schedule Name
  ASHRAETau,                              !- Solar Model Indicator
  ,                                       !- Beam Solar Day Schedule Name
  ,                                       !- Diffuse Solar Day Schedule Name
  0.288,                                  !- ASHRAE Taub {dimensionless}
  2.571;                                  !- ASHRAE Taud {dimensionless}

OS:SizingPeriod:DesignDay,
  {a9cfdd9b-e7d0-421c-9952-5e3c94809cc9}, !- Handle
  Dodge Co February .4% Condns DB=>MCWB 1, !- Name
  12.8,                                   !- Maximum Dry-Bulb Temperature {C}
  7.8,                                    !- Daily Dry-Bulb Temperature Range {deltaC}
  11,                                     !- Humidity Indicating Conditions at Maximum Dry-Bulb
  97948,                                  !- Barometric Pressure {Pa}
  4.8,                                    !- Wind Speed {m/s}
  210,                                    !- Wind Direction {deg}
  0,                                      !- Sky Clearness
  0,                                      !- Rain Indicator
  0,                                      !- Snow Indicator
  21,                                     !- Day of Month
  2,                                      !- Month
  SummerDesignDay,                        !- Day Type
  0,                                      !- Daylight Saving Time Indicator
  Wetbulb,                                !- Humidity Indicating Type
  ,                                       !- Humidity Indicating Day Schedule Name
  DefaultMultipliers,                     !- Dry-Bulb Temperature Range Modifier Type
  ,                                       !- Dry-Bulb Temperature Range Modifier Schedule Name
  ASHRAETau,                              !- Solar Model Indicator
  ,                                       !- Beam Solar Day Schedule Name
  ,                                       !- Diffuse Solar Day Schedule Name
  0.29,                                   !- ASHRAE Taub {dimensionless}
  2.367;                                  !- ASHRAE Taud {dimensionless}

OS:SizingPeriod:DesignDay,
  {f7f4b8ba-bcb8-448c-aaa9-be82ee0f90be}, !- Handle
  Dodge Co February .4% Condns WB=>MCDB 1, !- Name
  12.2,                                   !- Maximum Dry-Bulb Temperature {C}
  7.8,                                    !- Daily Dry-Bulb Temperature Range {deltaC}
  11.4,                                   !- Humidity Indicating Conditions at Maximum Dry-Bulb
  97948,                                  !- Barometric Pressure {Pa}
  4.8,                                    !- Wind Speed {m/s}
  210,                                    !- Wind Direction {deg}
  0,                                      !- Sky Clearness
  0,                                      !- Rain Indicator
  0,                                      !- Snow Indicator
  21,                                     !- Day of Month
  2,                                      !- Month
  SummerDesignDay,                        !- Day Type
  0,                                      !- Daylight Saving Time Indicator
  Wetbulb,                                !- Humidity Indicating Type
  ,                                       !- Humidity Indicating Day Schedule Name
  DefaultMultipliers,                     !- Dry-Bulb Temperature Range Modifier Type
  ,                                       !- Dry-Bulb Temperature Range Modifier Schedule Name
  ASHRAETau,                              !- Solar Model Indicator
  ,                                       !- Beam Solar Day Schedule Name
  ,                                       !- Diffuse Solar Day Schedule Name
  0.29,                                   !- ASHRAE Taub {dimensionless}
  2.367;                                  !- ASHRAE Taud {dimensionless}

OS:SizingPeriod:DesignDay,
  {7682fd91-36af-41b9-bbc7-f39bd143c392}, !- Handle
  Dodge Co January .4% Condns DB=>MCWB 1, !- Name
  8.7,                                    !- Maximum Dry-Bulb Temperature {C}