
OS:Version,
  {0f8931e2-3871-4b5d-af47-31ad722bfa4d}, !- Handle
  2.8.1;                                  !- Version Identifier

OS:Facility,
  {9336ecfa-9ba5-4ce0-b9eb-973afdd3103c}; !- Handle

OS:Site,
  {d895863a-b650-4f15-9fb1-b0c42123a6bd}, !- Handle
  Newark Intl Airport_NJ_USA,             !- Name
  40.68,                                  !- Latitude {deg}
  -74.17,                                 !- Longitude {deg}
  -5,                                     !- Time Zone {hr}
  9,                                      !- Elevation {m}
  City;                                   !- Terrain

OS:SimulationControl,
  {01f00829-8369-4f3a-8694-d2884401d26d}, !- Handle
  ,                                       !- Do Zone Sizing Calculation
  ,                                       !- Do System Sizing Calculation
  ,                                       !- Do Plant Sizing Calculation
  No,                                     !- Run Simulation for Sizing Periods
  Yes;                                    !- Run Simulation for Weather File Run Periods

OS:Sizing:Parameters,
  {09c8b5f8-d33f-4590-a31d-89853554aa9e}, !- Handle
  1.25,                                   !- Heating Sizing Factor
  1.15;                                   !- Cooling Sizing Factor

OS:Timestep,
  {6b3e22af-5089-455b-bc77-3c1189693363}, !- Handle
  4;                                      !- Number of Timesteps per Hour

OS:ShadowCalculation,
  {260111d7-f026-4ac0-b676-287cf0b06b07}, !- Handle
  20,                                     !- Calculation Frequency
  15000;                                  !- Maximum Figures in Shadow Overlap Calculations

OS:HeatBalanceAlgorithm,
  {2729f863-6860-4030-a3ab-8c6428b851a2}, !- Handle
  ConductionTransferFunction,             !- Algorithm
  200;                                    !- Surface Temperature Upper Limit {C}

OS:RunPeriod,
  {f48f975c-8403-4108-8e63-4d28028eb276}, !- Handle
  Run Period 1,                           !- Name
  1,                                      !- Begin Month
  1,                                      !- Begin Day of Month
  12,                                     !- End Month
  31,                                     !- End Day of Month
  ,                                       !- Use Weather File Holidays and Special Days
  ,                                       !- Use Weather File Daylight Saving Period
  ,                                       !- Apply Weekend Holiday Rule
  ,                                       !- Use Weather File Rain Indicators
  ,                                       !- Use Weather File Snow Indicators
  ;                                       !- Number of Times Runperiod to be Repeated

OS:LifeCycleCost:Parameters,
  {2200f02c-81d6-4d74-85ba-19b094a14d75}, !- Handle
  ,                                       !- Analysis Type
  ,                                       !- Discounting Convention
  ,                                       !- Inflation Approach
  ,                                       !- Real Discount Rate
  ,                                       !- Nominal Discount Rate
  ,                                       !- Inflation
  ,                                       !- Base Date Month
  ,                                       !- Base Date Year
  ,                                       !- Service Date Month
  ,                                       !- Service Date Year
  ;                                       !- Length of Study Period in Years

OS:WeatherFile,
  {58701397-ab26-405e-846c-9c3d16b70520}, !- Handle
  Newark Intl Airport,                    !- City
  NJ,                                     !- State Province Region
  USA,                                    !- Country
  customized weather file,                !- Data Source
  725020,                                 !- WMO Number
  40.68,                                  !- Latitude {deg}
  -74.17,                                 !- Longitude {deg}
  -5,                                     !- Time Zone {hr}
  9,                                      !- Elevation {m}
  file:////weather/USA_NJ_Newark.Intl.Airport.725020_2016.epw, !- Url
  226BE93E;                               !- Checksum


OS:YearDescription,
  {aba72106-7a18-4403-bfd2-3f6cffa6ca3a}, !- Handle
  2018,                                   !- Calendar Year
  ,                                       !- Day of Week for Start Day
  ;                                       !- Is Leap Year

OS:Site:WaterMainsTemperature,
  {f755113d-8fdb-4d8e-88fc-26e013cc7e1f}, !- Handle
  Correlation,                            !- Calculation Method
  ,                                       !- Temperature Schedule Name
  13.965,                                 !- Annual Average Outdoor Air Temperature {C}
  25.57;                                  !- Maximum Difference In Monthly Average Outdoor Air Temperatures {deltaC}

OS:SizingPeriod:DesignDay,
  {d4df5b1f-293d-4995-a450-e78e94244225}, !- Handle
  Newark Intl Airport Ann Clg .4% Condns DB=>MWB 1, !- Name
  34.5,                                   !- Maximum Dry-Bulb Temperature {C}
  9,                                      !- Daily Dry-Bulb Temperature Range {deltaC}
  23.7,                                   !- Humidity Indicating Conditions at Maximum Dry-Bulb
  101217,                                 !- Barometric Pressure {Pa}
  5.7,                                    !- Wind Speed {m/s}
  260,                                    !- Wind Direction {deg}
  0,                                      !- Sky Clearness
  0,                                      !- Rain Indicator
  0,                                      !- Snow Indicator
  21,                                     !- Day of Month
  7,                                      !- Month
  SummerDesignDay,                        !- Day Type
  0,                                      !- Daylight Saving Time Indicator
  Wetbulb,                                !- Humidity Indicating Type
  ,                                       !- Humidity Indicating Day Schedule Name
  DefaultMultipliers,                     !- Dry-Bulb Temperature Range Modifier Type
  ,                                       !- Dry-Bulb Temperature Range Modifier Schedule Name
  ASHRAETau,                              !- Solar Model Indicator
  ,                                       !- Beam Solar Day Schedule Name
  ,                                       !- Diffuse Solar Day Schedule Name
  0.452,                                  !- ASHRAE Taub {dimensionless}
  2.128;                                  !- ASHRAE Taud {dimensionless}

OS:SizingPeriod:DesignDay,
  {a464f465-f9db-4ec8-b0a0-6a6b57c2fab1}, !- Handle
  Newark Intl Airport Ann Clg .4% Condns WB=>MDB 1, !- Name
  31.5,                                   !- Maximum Dry-Bulb Temperature {C}
  9,                                      !- Daily Dry-Bulb Temperature Range {deltaC}
  25.4,                                   !- Humidity Indicating Conditions at Maximum Dry-Bulb
  101217,                                 !- Barometric Pressure {Pa}
  5.7,                                    !- Wind Speed {m/s}
  260,                                    !- Wind Direction {deg}
  0,                                      !- Sky Clearness
  0,                                      !- Rain Indicator
  0,                                      !- Snow Indicator
  21,                                     !- Day of Month
  7,                                      !- Month
  SummerDesignDay,                        !- Day Type
  0,                                      !- Daylight Saving Time Indicator
  Wetbulb,                                !- Humidity Indicating Type
  ,                                       !- Humidity Indicating Day Schedule Name
  DefaultMultipliers,                     !- Dry-Bulb Temperature Range Modifier Type
  ,                                       !- Dry-Bulb Temperature Range Modifier Schedule Name
  ASHRAETau,                              !- Solar Model Indicator
  ,                                       !- Beam Solar Day Schedule Name
  ,                                       !- Diffuse Solar Day Schedule Name
  0.452,                                  !- ASHRAE Taub {dimensionless}
  2.128;                                  !- ASHRAE Taud {dimensionless}

OS:SizingPeriod:DesignDay,
  {3815a221-a123-483f-b870-db4dbee84c17}, !- Handle
  Newark Intl Airport Ann Clg 1% Condns DB=>MWB 1, !- Name
  32.8,                                   !- Maximum Dry-Bulb Temperature {C}
  9,                                      !- Daily Dry-Bulb Temperature Range {deltaC}
  22.8,                                   !- Humidity Indicating Conditions at Maximum Dry-Bulb
  101217,                                 !- Barometric Pressure {Pa}
  5.7,                                    !- Wind Speed {m/s}
  260,                                    !- Wind Direction {deg}
  0,                                      !- Sky Clearness
  0,                                      !- Rain Indicator
  0,                                      !- Snow Indicator
  21,                                     !- Day of Month
  7,                                      !- Month
  SummerDesignDay,                        !- Day Type
  0,                                      !- Daylight Saving Time Indicator
  Wetbulb,                                !- Humidity Indicating Type
  ,                                       !- Humidity Indicating Day Schedule Name
  DefaultMultipliers,                     !- Dry-Bulb Temperature Range Modifier Type
  ,                                       !- Dry-Bulb Temperature Range Modifier Schedule Name
  ASHRAETau,                              !- Solar Model Indicator
  ,                                       !- Beam Solar Day Schedule Name
  ,                                       !- Diffuse Solar Day Schedule Name
  0.452,                                  !- ASHRAE Taub {dimensionless}
  2.128;                                  !- ASHRAE Taud {dimensionless}

OS:SizingPeriod:DesignDay,
  {fcee17de-d0ab-43bb-86f3-cf9f319559f5}, !- Handle
  Newark Intl Airport Ann Clg 2% Condns DP=>MDB 1, !- Name
  26.6,                                   !- Maximum Dry-Bulb Temperature {C}
  9,                                      !- Daily Dry-Bulb Temperature Range {deltaC}
  22.4,                                   !- Humidity Indicating Conditions at Maximum Dry-Bulb
  101217,                                 !- Barometric Pressure {Pa}
  5.7,                                    !- Wind Speed {m/s}
  260,                                    !- Wind Direction {deg}
  0,                                      !- Sky Clearness
  0,                                      !- Rain Indicator
  0,                                      !- Snow Indicator
  21,                                     !- Day of Month
  7,                                      !- Month
  SummerDesignDay,                        !- Day Type
  0,                                      !- Daylight Saving Time Indicator
  Dewpoint,                               !- Humidity Indicating Type
  ,                                       !- Humidity Indicating Day Schedule Name
  DefaultMultipliers,                     !- Dry-Bulb Temperature Range Modifier Type
  ,                                       !- Dry-Bulb Temperature Range Modifier Schedule Name
  ASHRAETau,                              !- Solar Model Indicator
  ,                                       !- Beam Solar Day Schedule Name
  ,                                       !- Diffuse Solar Day Schedule Name
  0.452,                                  !- ASHRAE Taub {dimensionless}
  2.128;                                  !- ASHRAE Taud {dimensionless}

OS:SizingPeriod:DesignDay,
  {a69a1e19-4acc-4e84-9d0f-1bbc5663a02b}, !- Handle
  Newark Intl Airport Ann Htg 99% Condns DB 1, !- Name
  -8.6,                                   !- Maximum Dry-Bulb Temperature {C}
  0,                                      !- Daily Dry-Bulb Temperature Range {deltaC}
  -8.6,                                   !- Humidity Indicating Conditions at Maximum Dry-Bulb
  101217,                                 !- Barometric Pressure {Pa}
  6.2,                                    !- Wind Speed {m/s}
  320,                                    !- Wind Direction {deg}
  0,                                      !- Sky Clearness
  0,                                      !- Rain Indicator
  0,                                      !- Snow Indicator
  21,                                     !- Day of Month
  1,                                      !- Month
  WinterDesignDay,                        !- Day Type
  0,                                      !- Daylight Saving Time Indicator
  Wetbulb,                                !- Humidity Indicating Type
  ,                                       !- Humidity Indicating Day Schedule Name
  DefaultMultipliers,                     !- Dry-Bulb Temperature Range Modifier Type
  ,                                       !- Dry-Bulb Temperature Range Modifier Schedule Name
  ASHRAEClearSky;                         !- Solar Model Indicator

OS:SizingPeriod:DesignDay,
  {81fc022d-ff28-41ff-8515-8f2c0686c408}, !- Handle
  Newark Intl Airport Ann Htg 99.6% Condns DB 1, !- Name
  -10.9,                                  !- Maximum Dry-Bulb Temperature {C}
  0,                                      !- Daily Dry-Bulb Temperature Range {deltaC}
  -10.9,                                  !- Humidity Indicating Conditions at Maximum Dry-Bulb
  101217,                                 !- Barometric Pressure {Pa}
  6.2,                                    !- Wind Speed {m/s}
  320,                                    !- Wind Direction {deg}
  0,                                      !- Sky Clearness
  0,                                      !- Rain Indicator
  0,                                      !- Snow Indicator
  21,                                     !- Day of Month
  1,                                      !- Month
  WinterDesignDay,                        !- Day Type
  0,                                      !- Daylight Saving Time Indicator
  Wetbulb,                                !- Humidity Indicating Type
  ,                                       !- Humidity Indicating Day Schedule Name
  DefaultMultipliers,                     !- Dry-Bulb Temperature Range Modifier Type
  ,                                       !- Dry-Bulb Temperature Range Modifier Schedule Name
  ASHRAEClearSky;                         !- Solar Model Indicator

OS:SizingPeriod:DesignDay,
  {37952bce-48af-4387-8971-c8eac15e4eaf}, !- Handle
  Newark Intl Airport Ann Htg Wind 99% Condns WS=>MCDB 1, !- Name
  0.5,                                    !- Maximum Dry-Bulb Temperature {C}
  0,                                      !- Daily Dry-Bulb Temperature Range {deltaC}
  0.5,                                    !- Humidity Indicating Conditions at Maximum Dry-Bulb
  101217,                                 !- Barometric Pressure {Pa}
  11.7,                                   !- Wind Speed {m/s}
  320,                                    !- Wind Direction {deg}
  0,                                      !- Sky Clearness
  0,                                      !- Rain Indicator
  0,                                      !- Snow Indicator
  21,                                     !- Day of Month
  1,                                      !- Month
  WinterDesignDay,                        !- Day Type
  0,                                      !- Daylight Saving Time Indicator
  Wetbulb,                                !- Humidity Indicating Type
  ,                                       !- Humidity Indicating Day Schedule Name
  DefaultMultipliers,                     !- Dry-Bulb Temperature Range Modifier Type
  ,                                       !- Dry-Bulb Temperature Range Modifier Schedule Name
  ASHRAEClearSky;                         !- Solar Model Indicator

OS:SizingPeriod:DesignDay,
  {9805e96d-f7ee-44c8-aab9-65d782f207cb}, !- Handle
  Newark Intl Airport April .4% Condns DB=>MCWB 1, !- Name
  30.5,                                   !- Maximum Dry-Bulb Temperature {C}
  9.4,                                    !- Daily Dry-Bulb Temperature Range {deltaC}
  18.4,                                   !- Humidity Indicating Conditions at Maximum Dry-Bulb
  101217,                                 !- Barometric Pressure {Pa}
  5.7,                                    !- Wind Speed {m/s}
  260,                                    !- Wind Direction {deg}
  0,                                      !- Sky Clearness
  0,                                      !- Rain Indicator
  0,                                      !- Snow Indicator
  21,                                     !- Day of Month
  4,                                      !- Month
  SummerDesignDay,                        !- Day Type
  0,                                      !- Daylight Saving Time Indicator
  Wetbulb,                                !- Humidity Indicating Type
  ,                                       !- Humidity Indicating Day Schedule Name
  DefaultMultipliers,                     !- Dry-Bulb Temperature Range Modifier Type
  ,                                       !- Dry-Bulb Temperature Range Modifier Schedule Name
  ASHRAETau,                              !- Solar Model Indicator
  ,                                       !- Beam Solar Day Schedule Name
  ,                                       !- Diffuse Solar Day Schedule Name
  0.386,                                  !- ASHRAE Taub {dimensionless}
  2.312;                                  !- ASHRAE Taud {dimensionless}

OS:SizingPeriod:DesignDay,
  {d7ba8132-d1fd-4ec2-be9a-f91733047100}, !- Handle
  Newark Intl Airport April .4% Condns WB=>MCDB 1, !- Name
  28,                                     !- Maximum Dry-Bulb Temperature {C}
  9.4,                                    !- Daily Dry-Bulb Temperature Range {deltaC}
  19.4,                                   !- Humidity Indicating Conditions at Maximum Dry-Bulb
  101217,                                 !- Barometric Pressure {Pa}
  5.7,                                    !- Wind Speed {m/s}
  260,                                    !- Wind Direction {deg}
  0,                                      !- Sky Clearness
  0,                                      !- Rain Indicator
  0,                                      !- Snow Indicator
  21,                                     !- Day of Month
  4,                                      !- Month
  SummerDesignDay,                        !- Day Type
  0,                                      !- Daylight Saving Time Indicator
  Wetbulb,                                !- Humidity Indicating Type
  ,                                       !- Humidity Indicating Day Schedule Name
  DefaultMultipliers,                     !- Dry-Bulb Temperature Range Modifier Type
  ,                                       !- Dry-Bulb Temperature Range Modifier Schedule Name
  ASHRAETau,                              !- Solar Model Indicator
  ,                                       !- Beam Solar Day Schedule Name
  ,                                       !- Diffuse Solar Day Schedule Name
  0.386,                                  !- ASHRAE Taub {dimensionless}
  2.312;                                  !- ASHRAE Taud {dimensionless}

OS:SizingPeriod:DesignDay,
  {18d957d7-3ed1-4349-aa57-b3a573d4abdf}, !- Handle
  Newark Intl Airport August .4% Condns DB=>MCWB 1, !- Name
  36.2,                                   !- Maximum Dry-Bulb Temperature {C}
  8.7,                                    !- Daily Dry-Bulb Temperature Range {deltaC}
  24.2,                                   !- Humidity Indicating Conditions at Maximum Dry-Bulb
  101217,                                 !- Barometric Pressure {Pa}
  5.7,                                    !- Wind Speed {m/s}
  260,                                    !- Wind Direction {deg}
  0,                                      !- Sky Clearness
  0,                                      !- Rain Indicator
  0,                                      !- Snow Indicator
  21,                                     !- Day of Month
  8,                                      !- Month
  SummerDesignDay,                        !- Day Type
  0,                                      !- Daylight Saving Time Indicator
  Wetbulb,                                !- Humidity Indicating Type
  ,                                       !- Humidity Indicating Day Schedule Name
  DefaultMultipliers,                     !- Dry-Bulb Temperature Range Modifier Type
  ,                                       !- Dry-Bulb Temperature Range Modifier Schedule Name
  ASHRAETau,                              !- Solar Model Indicator
  ,                                       !- Beam Solar Day Schedule Name
  ,                                       !- Diffuse Solar Day Schedule Name
  0.439,                                  !- ASHRAE Taub {dimensionless}
  2.191;                                  !- ASHRAE Taud {dimensionless}

OS:SizingPeriod:DesignDay,
  {002365e0-fced-4a7e-bce9-41ef804516b6}, !- Handle
  Newark Intl Airport August .4% Condns WB=>MCDB 1, !- Name
  33,                                     !- Maximum Dry-Bulb Temperature {C}
  8.7,                                    !- Daily Dry-Bulb Temperature Range {deltaC}
  26.2,                                   !- Humidity Indicating Conditions at Maximum Dry-Bulb
  101217,                                 !- Barometric Pressure {Pa}
  5.7,                                    !- Wind Speed {m/s}
  260,                                    !- Wind Direction {deg}
  0,                                      !- Sky Clearness
  0,                                      !- Rain Indicator
  0,                                      !- Snow Indicator
  21,                                     !- Day of Month
  8,                                      !- Month
  SummerDesignDay,                        !- Day Type
  0,                                      !- Daylight Saving Time Indicator
  Wetbulb,                                !- Humidity Indicating Type
  ,                                       !- Humidity Indicating Day Schedule Name
  DefaultMultipliers,                     !- Dry-Bulb Temperature Range Modifier Type
  ,                                       !- Dry-Bulb Temperature Range Modifier Schedule Name
  ASHRAETau,                              !- Solar Model Indicator
  ,                                       !- Beam Solar Day Schedule Name
  ,                                       !- Diffuse Solar Day Schedule Name
  0.439,                                  !- ASHRAE Taub {dimensionless}
  2.191;                                  !- ASHRAE Taud {dimensionless}

OS:SizingPeriod:DesignDay,
  {a2181639-e93a-4032-851e-238c6b1bc795}, !- Handle
  Newark Intl Airport December .4% Condns DB=>MCWB 1, !- Name
  18.6,                                   !- Maximum Dry-Bulb Temperature {C}
  7.1,                                    !- Daily Dry-Bulb Temperature Range {deltaC}
  15.2,                                   !- Humidity Indicating Conditions at Maximum Dry-Bulb
  101217,                                 !- Barometric Pressure {Pa}
  5.7,                                    !- Wind Speed {m/s}
  260,                                    !- Wind Direction {deg}
  0,                                      !- Sky Clearness
  0,                                      !- Rain Indicator
  0,                                      !- Snow Indicator
  21,                                     !- Day of Month
  12,                                     !- Month
  SummerDesignDay,                        !- Day Type
  0,                                      !- Daylight Saving Time Indicator
  Wetbulb,                                !- Humidity Indicating Type
  ,                                       !- Humidity Indicating Day Schedule Name
  DefaultMultipliers,                     !- Dry-Bulb Temperature Range Modifier Type
  ,                                       !- Dry-Bulb Temperature Range Modifier Schedule Name
  ASHRAETau,                              !- Solar Model Indicator
  ,                                       !- Beam Solar Day Schedule Name
  ,                                       !- Diffuse Solar Day Schedule Name
  0.324,                                  !- ASHRAE Taub {dimensionless}
  2.56;                                   !- ASHRAE Taud {dimensionless}

OS:SizingPeriod:DesignDay,
  {817aa8b9-0e0b-460f-aef5-98b569df8a20}, !- Handle
  Newark Intl Airport December .4% Condns WB=>MCDB 1, !- Name
  17.5,                                   !- Maximum Dry-Bulb Temperature {C}
  7.1,                                    !- Daily Dry-Bulb Temperature Range {deltaC}
  15.6,                                   !- Humidity Indicating Conditions at Maximum Dry-Bulb
  101217,                                 !- Barometric Pressure {Pa}
  5.7,                                    !- Wind Speed {m/s}
  260,                                    !- Wind Direction {deg}
  0,                                      !- Sky Clearness
  0,                                      !- Rain Indicator
  0,                                      !- Snow Indicator
  21,                                     !- Day of Month
  12,                                     !- Month
  SummerDesignDay,                        !- Day Type
  0,                                      !- Daylight Saving Time Indicator
  Wetbulb,                                !- Humidity Indicating Type
  ,                                       !- Humidity Indicating Day Schedule Name
  DefaultMultipliers,                     !- Dry-Bulb Temperature Range Modifier Type
  ,                                       !- Dry-Bulb Temperature Range Modifier Schedule Name
  ASHRAETau,                              !- Solar Model Indicator
  ,                                       !- Beam Solar Day Schedule Name
  ,                                       !- Diffuse Solar Day Schedule Name
  0.324,                                  !- ASHRAE Taub {dimensionless}
  2.56;                                   !- ASHRAE Taud {dimensionless}

OS:SizingPeriod:DesignDay,
  {829246dc-ea90-49d3-8dd6-b9fabec05971}, !- Handle
  Newark Intl Airport February .4% Condns DB=>MCWB 1, !- Name
  17.7,                                   !- Maximum Dry-Bulb Temperature {C}
  8,                                      !- Daily Dry-Bulb Temperature Range {deltaC}
  12.1,                                   !- Humidity Indicating Conditions at Maximum Dry-Bulb
  101217,                                 !- Barometric Pressure {Pa}
  5.7,                                    !- Wind Speed {m/s}
  260,                                    !- Wind Direction {deg}
  0,                                      !- Sky Clearness
  0,                                      !- Rain Indicator
  0,                                      !- Snow Indicator
  21,                                     !- Day of Month
  2,                                      !- Month
  SummerDesignDay,                        !- Day Type
  0,                                      !- Daylight Saving Time Indicator
  Wetbulb,                                !- Humidity Indicating Type
  ,                                       !- Humidity Indicating Day Schedule Name
  DefaultMultipliers,                     !- Dry-Bulb Temperature Range Modifier Type
  ,                                       !- Dry-Bulb Temperature Range Modifier Schedule Name
  ASHRAETau,                              !- Solar Model Indicator
  ,                                       !- Beam Solar Day Schedule Name
  ,                                       !- Diffuse Solar Day Schedule Name
  0.331,                                  !- ASHRAE Taub {dimensionless}
  2.461;                                  !- ASHRAE Taud {dimensionless}

OS:SizingPeriod:DesignDay,
  {b2391f65-7695-40ed-bbfe-1f59dccc7d4f}, !- Handle
  Newark Intl Airport February .4% Condns WB=>MCDB 1, !- Name
  16.5,                                   !- Maximum Dry-Bulb Temperature {C}
  8,                                      !- Daily Dry-Bulb Temperature Range {deltaC}
  14.4,                                   !- Humidity Indicating Conditions at Maximum Dry-Bulb
  101217,                                 !- Barometric Pressure {Pa}
  5.7,                                    !- Wind Speed {m/s}
  260,                                    !- Wind Direction {deg}
  0,                                      !- Sky Clearness
  0,                                      !- Rain Indicator
  0,                                      !- Snow Indicator
  21,                                     !- Day of Month
  2,                                      !- Month
  SummerDesignDay,                        !- Day Type
  0,                                      !- Daylight Saving Time Indicator
  Wetbulb,                                !- Humidity Indicating Type
  ,                                       !- Humidity Indicating Day Schedule Name
  DefaultMultipliers,                     !- Dry-Bulb Temperature Range Modifier Type
  ,                                       !- Dry-Bulb Temperature Range Modifier Schedule Name
  ASHRAETau,                              !- Solar Model Indicator
  ,                                       !- Beam Solar Day Schedule Name
  ,                                       !- Diffuse Solar Day Schedule Name
  0.331,                                  !- ASHRAE Taub {dimensionless}
  2.461;                                  !- ASHRAE Taud {dimensionless}

OS:SizingPeriod:DesignDay,
  {19e41524-7e20-4c12-b249-0ba093d9b760}, !- Handle
  Newark Intl Airport January .4% Condns DB=>MCWB 1, !- Name
  17.4,                                   !- Maximum Dry-Bulb Temperature {C}