
OS:Version,
  {bacaf591-17d8-4d8f-b335-7751bff8fa5e}, !- Handle
  2.9.1;                                  !- Version Identifier

OS:Facility,
  {1cfe6ff9-4383-4eae-bcad-305619d31ecf}; !- Handle

OS:Site,
  {55d843a8-be2e-4626-a8fd-b5e4cc03c0be}, !- Handle
  Washington National_DC_USA,             !- Name
  38.87,                                  !- Latitude {deg}
  -77.03,                                 !- Longitude {deg}
  -5,                                     !- Time Zone {hr}
  20,                                     !- Elevation {m}
  City;                                   !- Terrain

OS:SimulationControl,
  {e170301e-c59d-4242-b439-a2c9cc362ffe}, !- Handle
  ,                                       !- Do Zone Sizing Calculation
  ,                                       !- Do System Sizing Calculation
  ,                                       !- Do Plant Sizing Calculation
  No,                                     !- Run Simulation for Sizing Periods
  Yes;                                    !- Run Simulation for Weather File Run Periods

OS:Sizing:Parameters,
  {9b475f14-1c7d-4040-addd-5d4000d77144}, !- Handle
  1.25,                                   !- Heating Sizing Factor
  1.15;                                   !- Cooling Sizing Factor

OS:Timestep,
  {946e5d6e-274b-40de-a5a5-251284ff1843}, !- Handle
  4;                                      !- Number of Timesteps per Hour

OS:ShadowCalculation,
  {6003e326-0c7e-4c15-a4ce-c1e9663fcbf2}, !- Handle
  20,                                     !- Calculation Frequency
  15000;                                  !- Maximum Figures in Shadow Overlap Calculations

OS:HeatBalanceAlgorithm,
  {45b01a6e-b7ca-4996-b491-bcbb5f854371}, !- Handle
  ConductionTransferFunction,             !- Algorithm
  200;                                    !- Surface Temperature Upper Limit {C}

OS:RunPeriod,
  {343f6bed-14ce-4f90-9f7c-c1b9a5ac0c06}, !- Handle
  Run Period 1,                           !- Name
  1,                                      !- Begin Month
  1,                                      !- Begin Day of Month
  12,                                     !- End Month
  31,                                     !- End Day of Month
  ,                                       !- Use Weather File Holidays and Special Days
  ,                                       !- Use Weather File Daylight Saving Period
  ,                                       !- Apply Weekend Holiday Rule
  ,                                       !- Use Weather File Rain Indicators
  ,                                       !- Use Weather File Snow Indicators
  ;                                       !- Number of Times Runperiod to be Repeated

OS:LifeCycleCost:Parameters,
  {1417dfb6-36df-49bf-94af-e4bd21a9510b}, !- Handle
  ,                                       !- Analysis Type
  ,                                       !- Discounting Convention
  ,                                       !- Inflation Approach
  ,                                       !- Real Discount Rate
  ,                                       !- Nominal Discount Rate
  ,                                       !- Inflation
  ,                                       !- Base Date Month
  ,                                       !- Base Date Year
  ,                                       !- Service Date Month
  ,                                       !- Service Date Year
  ;                                       !- Length of Study Period in Years

OS:WeatherFile,
  {b98a09c9-f3c2-41a9-b456-d14250443758}, !- Handle
  Washington National,                    !- City
  DC,                                     !- State Province Region
  USA,                                    !- Country
  customized weather file,                !- Data Source
  724050,                                 !- WMO Number
  38.87,                                  !- Latitude {deg}
  -77.03,                                 !- Longitude {deg}
  -5,                                     !- Time Zone {hr}
  20,                                     !- Elevation {m}
  file:////weather/G1100010.epw,          !- Url
  226BE93E;                               !- Checksum

OS:Site:WaterMainsTemperature,
  {ad02751f-42db-42fb-b977-a61b6d703f5a}, !- Handle
  Correlation,                            !- Calculation Method
  ,                                       !- Temperature Schedule Name
  15.5908333333333,                       !- Annual Average Outdoor Air Temperature {C}
  24.68;                                  !- Maximum Difference In Monthly Average Outdoor Air Temperatures {deltaC}

OS:SizingPeriod:DesignDay,
  {e9107e9d-4960-43b3-a92d-9fb38e0e84e9}, !- Handle
  Washington National Ann Clg .4% Condns DB=>MWB 1, !- Name
  34.7,                                   !- Maximum Dry-Bulb Temperature {C}
  9,                                      !- Daily Dry-Bulb Temperature Range {deltaC}
  24.3,                                   !- Humidity Indicating Conditions at Maximum Dry-Bulb
  101085,                                 !- Barometric Pressure {Pa}
  4.6,                                    !- Wind Speed {m/s}
  170,                                    !- Wind Direction {deg}
  0,                                      !- Sky Clearness
  0,                                      !- Rain Indicator
  0,                                      !- Snow Indicator
  21,                                     !- Day of Month
  7,                                      !- Month
  SummerDesignDay,                        !- Day Type
  0,                                      !- Daylight Saving Time Indicator
  Wetbulb,                                !- Humidity Indicating Type
  ,                                       !- Humidity Indicating Day Schedule Name
  DefaultMultipliers,                     !- Dry-Bulb Temperature Range Modifier Type
  ,                                       !- Dry-Bulb Temperature Range Modifier Schedule Name
  ASHRAETau,                              !- Solar Model Indicator
  ,                                       !- Beam Solar Day Schedule Name
  ,                                       !- Diffuse Solar Day Schedule Name
  0.456,                                  !- ASHRAE Taub {dimensionless}
  2.13;                                   !- ASHRAE Taud {dimensionless}

OS:SizingPeriod:DesignDay,
  {5a71a9d0-ff29-48a6-b477-6ae5bfc47df6}, !- Handle
  Washington National Ann Clg .4% Condns WB=>MDB 1, !- Name
  31.6,                                   !- Maximum Dry-Bulb Temperature {C}
  9,                                      !- Daily Dry-Bulb Temperature Range {deltaC}
  25.8,                                   !- Humidity Indicating Conditions at Maximum Dry-Bulb
  101085,                                 !- Barometric Pressure {Pa}
  4.6,                                    !- Wind Speed {m/s}
  170,                                    !- Wind Direction {deg}
  0,                                      !- Sky Clearness
  0,                                      !- Rain Indicator
  0,                                      !- Snow Indicator
  21,                                     !- Day of Month
  7,                                      !- Month
  SummerDesignDay,                        !- Day Type
  0,                                      !- Daylight Saving Time Indicator
  Wetbulb,                                !- Humidity Indicating Type
  ,                                       !- Humidity Indicating Day Schedule Name
  DefaultMultipliers,                     !- Dry-Bulb Temperature Range Modifier Type
  ,                                       !- Dry-Bulb Temperature Range Modifier Schedule Name
  ASHRAETau,                              !- Solar Model Indicator
  ,                                       !- Beam Solar Day Schedule Name
  ,                                       !- Diffuse Solar Day Schedule Name
  0.456,                                  !- ASHRAE Taub {dimensionless}
  2.13;                                   !- ASHRAE Taud {dimensionless}

OS:SizingPeriod:DesignDay,
  {95998bf2-9220-4868-b6bd-8a6284935112}, !- Handle
  Washington National Ann Clg 1% Condns DB=>MWB 1, !- Name
  33.2,                                   !- Maximum Dry-Bulb Temperature {C}
  9,                                      !- Daily Dry-Bulb Temperature Range {deltaC}
  23.8,                                   !- Humidity Indicating Conditions at Maximum Dry-Bulb
  101085,                                 !- Barometric Pressure {Pa}
  4.6,                                    !- Wind Speed {m/s}
  170,                                    !- Wind Direction {deg}
  0,                                      !- Sky Clearness
  0,                                      !- Rain Indicator
  0,                                      !- Snow Indicator
  21,                                     !- Day of Month
  7,                                      !- Month
  SummerDesignDay,                        !- Day Type
  0,                                      !- Daylight Saving Time Indicator
  Wetbulb,                                !- Humidity Indicating Type
  ,                                       !- Humidity Indicating Day Schedule Name
  DefaultMultipliers,                     !- Dry-Bulb Temperature Range Modifier Type
  ,                                       !- Dry-Bulb Temperature Range Modifier Schedule Name
  ASHRAETau,                              !- Solar Model Indicator
  ,                                       !- Beam Solar Day Schedule Name
  ,                                       !- Diffuse Solar Day Schedule Name
  0.456,                                  !- ASHRAE Taub {dimensionless}
  2.13;                                   !- ASHRAE Taud {dimensionless}

OS:SizingPeriod:DesignDay,
  {8aab3fcd-286c-4daf-8005-2a618c34762b}, !- Handle
  Washington National Ann Clg 2% Condns DP=>MDB 1, !- Name
  27.2,                                   !- Maximum Dry-Bulb Temperature {C}
  9,                                      !- Daily Dry-Bulb Temperature Range {deltaC}
  23,                                     !- Humidity Indicating Conditions at Maximum Dry-Bulb
  101085,                                 !- Barometric Pressure {Pa}
  4.6,                                    !- Wind Speed {m/s}
  170,                                    !- Wind Direction {deg}
  0,                                      !- Sky Clearness
  0,                                      !- Rain Indicator
  0,                                      !- Snow Indicator
  21,                                     !- Day of Month
  7,                                      !- Month
  SummerDesignDay,                        !- Day Type
  0,                                      !- Daylight Saving Time Indicator
  Dewpoint,                               !- Humidity Indicating Type
  ,                                       !- Humidity Indicating Day Schedule Name
  DefaultMultipliers,                     !- Dry-Bulb Temperature Range Modifier Type
  ,                                       !- Dry-Bulb Temperature Range Modifier Schedule Name
  ASHRAETau,                              !- Solar Model Indicator
  ,                                       !- Beam Solar Day Schedule Name
  ,                                       !- Diffuse Solar Day Schedule Name
  0.456,                                  !- ASHRAE Taub {dimensionless}
  2.13;                                   !- ASHRAE Taud {dimensionless}

OS:SizingPeriod:DesignDay,
  {02360ca0-80ac-446c-bec7-ca8803ad8cd6}, !- Handle
  Washington National Ann Htg 99% Condns DB 1, !- Name
  -6.3,                                   !- Maximum Dry-Bulb Temperature {C}
  0,                                      !- Daily Dry-Bulb Temperature Range {deltaC}
  -6.3,                                   !- Humidity Indicating Conditions at Maximum Dry-Bulb
  101085,                                 !- Barometric Pressure {Pa}
  5.4,                                    !- Wind Speed {m/s}
  330,                                    !- Wind Direction {deg}
  0,                                      !- Sky Clearness
  0,                                      !- Rain Indicator
  0,                                      !- Snow Indicator
  21,                                     !- Day of Month
  1,                                      !- Month
  WinterDesignDay,                        !- Day Type
  0,                                      !- Daylight Saving Time Indicator
  Wetbulb,                                !- Humidity Indicating Type
  ,                                       !- Humidity Indicating Day Schedule Name
  DefaultMultipliers,                     !- Dry-Bulb Temperature Range Modifier Type
  ,                                       !- Dry-Bulb Temperature Range Modifier Schedule Name
  ASHRAEClearSky;                         !- Solar Model Indicator

OS:SizingPeriod:DesignDay,
  {35071b3f-43a7-405d-a68d-057d0704c4dc}, !- Handle
  Washington National Ann Htg 99.6% Condns DB 1, !- Name
  -8.2,                                   !- Maximum Dry-Bulb Temperature {C}
  0,                                      !- Daily Dry-Bulb Temperature Range {deltaC}
  -8.2,                                   !- Humidity Indicating Conditions at Maximum Dry-Bulb
  101085,                                 !- Barometric Pressure {Pa}
  5.4,                                    !- Wind Speed {m/s}
  330,                                    !- Wind Direction {deg}
  0,                                      !- Sky Clearness
  0,                                      !- Rain Indicator
  0,                                      !- Snow Indicator
  21,                                     !- Day of Month
  1,                                      !- Month
  WinterDesignDay,                        !- Day Type
  0,                                      !- Daylight Saving Time Indicator
  Wetbulb,                                !- Humidity Indicating Type
  ,                                       !- Humidity Indicating Day Schedule Name
  DefaultMultipliers,                     !- Dry-Bulb Temperature Range Modifier Type
  ,                                       !- Dry-Bulb Temperature Range Modifier Schedule Name
  ASHRAEClearSky;                         !- Solar Model Indicator

OS:SizingPeriod:DesignDay,
  {ef257f3c-8382-4176-a683-fd402f31759e}, !- Handle
  Washington National Ann Htg Wind 99% Condns WS=>MCDB 1, !- Name
  1.3,                                    !- Maximum Dry-Bulb Temperature {C}
  0,                                      !- Daily Dry-Bulb Temperature Range {deltaC}
  1.3,                                    !- Humidity Indicating Conditions at Maximum Dry-Bulb
  101085,                                 !- Barometric Pressure {Pa}
  11,                                     !- Wind Speed {m/s}
  330,                                    !- Wind Direction {deg}
  0,                                      !- Sky Clearness
  0,                                      !- Rain Indicator
  0,                                      !- Snow Indicator
  21,                                     !- Day of Month
  1,                                      !- Month
  WinterDesignDay,                        !- Day Type
  0,                                      !- Daylight Saving Time Indicator
  Wetbulb,                                !- Humidity Indicating Type
  ,                                       !- Humidity Indicating Day Schedule Name
  DefaultMultipliers,                     !- Dry-Bulb Temperature Range Modifier Type
  ,                                       !- Dry-Bulb Temperature Range Modifier Schedule Name
  ASHRAEClearSky;                         !- Solar Model Indicator

OS:SizingPeriod:DesignDay,
  {6cccf748-325b-40b0-8812-f8dba7b2a92e}, !- Handle
  Washington National April .4% Condns DB=>MCWB 1, !- Name
  30,                                     !- Maximum Dry-Bulb Temperature {C}
  10.1,                                   !- Daily Dry-Bulb Temperature Range {deltaC}
  19,                                     !- Humidity Indicating Conditions at Maximum Dry-Bulb
  101085,                                 !- Barometric Pressure {Pa}
  4.6,                                    !- Wind Speed {m/s}
  170,                                    !- Wind Direction {deg}
  0,                                      !- Sky Clearness
  0,                                      !- Rain Indicator
  0,                                      !- Snow Indicator
  21,                                     !- Day of Month
  4,                                      !- Month
  SummerDesignDay,                        !- Day Type
  0,                                      !- Daylight Saving Time Indicator
  Wetbulb,                                !- Humidity Indicating Type
  ,                                       !- Humidity Indicating Day Schedule Name
  DefaultMultipliers,                     !- Dry-Bulb Temperature Range Modifier Type
  ,                                       !- Dry-Bulb Temperature Range Modifier Schedule Name
  ASHRAETau,                              !- Solar Model Indicator
  ,                                       !- Beam Solar Day Schedule Name
  ,                                       !- Diffuse Solar Day Schedule Name
  0.392,                                  !- ASHRAE Taub {dimensionless}
  2.289;                                  !- ASHRAE Taud {dimensionless}

OS:SizingPeriod:DesignDay,
  {1bdb5d8f-23a0-4f0c-8eac-ce94be2b1088}, !- Handle
  Washington National April .4% Condns WB=>MCDB 1, !- Name
  26.7,                                   !- Maximum Dry-Bulb Temperature {C}
  10.1,                                   !- Daily Dry-Bulb Temperature Range {deltaC}
  20.8,                                   !- Humidity Indicating Conditions at Maximum Dry-Bulb
  101085,                                 !- Barometric Pressure {Pa}
  4.6,                                    !- Wind Speed {m/s}
  170,                                    !- Wind Direction {deg}
  0,                                      !- Sky Clearness
  0,                                      !- Rain Indicator
  0,                                      !- Snow Indicator
  21,                                     !- Day of Month
  4,                                      !- Month
  SummerDesignDay,                        !- Day Type
  0,                                      !- Daylight Saving Time Indicator
  Wetbulb,                                !- Humidity Indicating Type
  ,                                       !- Humidity Indicating Day Schedule Name
  DefaultMultipliers,                     !- Dry-Bulb Temperature Range Modifier Type
  ,                                       !- Dry-Bulb Temperature Range Modifier Schedule Name
  ASHRAETau,                              !- Solar Model Indicator
  ,                                       !- Beam Solar Day Schedule Name
  ,                                       !- Diffuse Solar Day Schedule Name
  0.392,                                  !- ASHRAE Taub {dimensionless}
  2.289;                                  !- ASHRAE Taud {dimensionless}

OS:SizingPeriod:DesignDay,
  {7c706436-1485-4d21-bc53-e5fdad8c4453}, !- Handle
  Washington National August .4% Condns DB=>MCWB 1, !- Name
  36,                                     !- Maximum Dry-Bulb Temperature {C}
  8.7,                                    !- Daily Dry-Bulb Temperature Range {deltaC}
  24.7,                                   !- Humidity Indicating Conditions at Maximum Dry-Bulb
  101085,                                 !- Barometric Pressure {Pa}
  4.6,                                    !- Wind Speed {m/s}
  170,                                    !- Wind Direction {deg}
  0,                                      !- Sky Clearness
  0,                                      !- Rain Indicator
  0,                                      !- Snow Indicator
  21,                                     !- Day of Month
  8,                                      !- Month
  SummerDesignDay,                        !- Day Type
  0,                                      !- Daylight Saving Time Indicator
  Wetbulb,                                !- Humidity Indicating Type
  ,                                       !- Humidity Indicating Day Schedule Name
  DefaultMultipliers,                     !- Dry-Bulb Temperature Range Modifier Type
  ,                                       !- Dry-Bulb Temperature Range Modifier Schedule Name
  ASHRAETau,                              !- Solar Model Indicator
  ,                                       !- Beam Solar Day Schedule Name
  ,                                       !- Diffuse Solar Day Schedule Name
  0.442,                                  !- ASHRAE Taub {dimensionless}
  2.192;                                  !- ASHRAE Taud {dimensionless}

OS:SizingPeriod:DesignDay,
  {08d9d4dc-04d6-4986-8c33-73557e7a3ce8}, !- Handle
  Washington National August .4% Condns WB=>MCDB 1, !- Name
  32.5,                                   !- Maximum Dry-Bulb Temperature {C}
  8.7,                                    !- Daily Dry-Bulb Temperature Range {deltaC}
  26.7,                                   !- Humidity Indicating Conditions at Maximum Dry-Bulb
  101085,                                 !- Barometric Pressure {Pa}
  4.6,                                    !- Wind Speed {m/s}
  170,                                    !- Wind Direction {deg}
  0,                                      !- Sky Clearness
  0,                                      !- Rain Indicator
  0,                                      !- Snow Indicator
  21,                                     !- Day of Month
  8,                                      !- Month
  SummerDesignDay,                        !- Day Type
  0,                                      !- Daylight Saving Time Indicator
  Wetbulb,                                !- Humidity Indicating Type
  ,                                       !- Humidity Indicating Day Schedule Name
  DefaultMultipliers,                     !- Dry-Bulb Temperature Range Modifier Type
  ,                                       !- Dry-Bulb Temperature Range Modifier Schedule Name
  ASHRAETau,                              !- Solar Model Indicator
  ,                                       !- Beam Solar Day Schedule Name
  ,                                       !- Diffuse Solar Day Schedule Name
  0.442,                                  !- ASHRAE Taub {dimensionless}
  2.192;                                  !- ASHRAE Taud {dimensionless}

OS:SizingPeriod:DesignDay,
  {6c2f32a3-1984-48d2-b69a-146b49f18a82}, !- Handle
  Washington National December .4% Condns DB=>MCWB 1, !- Name
  19.7,                                   !- Maximum Dry-Bulb Temperature {C}
  7.4,                                    !- Daily Dry-Bulb Temperature Range {deltaC}
  14.9,                                   !- Humidity Indicating Conditions at Maximum Dry-Bulb
  101085,                                 !- Barometric Pressure {Pa}
  4.6,                                    !- Wind Speed {m/s}
  170,                                    !- Wind Direction {deg}
  0,                                      !- Sky Clearness
  0,                                      !- Rain Indicator
  0,                                      !- Snow Indicator
  21,                                     !- Day of Month
  12,                                     !- Month
  SummerDesignDay,                        !- Day Type
  0,                                      !- Daylight Saving Time Indicator
  Wetbulb,                                !- Humidity Indicating Type
  ,                                       !- Humidity Indicating Day Schedule Name
  DefaultMultipliers,                     !- Dry-Bulb Temperature Range Modifier Type
  ,                                       !- Dry-Bulb Temperature Range Modifier Schedule Name
  ASHRAETau,                              !- Solar Model Indicator
  ,                                       !- Beam Solar Day Schedule Name
  ,                                       !- Diffuse Solar Day Schedule Name
  0.31,                                   !- ASHRAE Taub {dimensionless}
  2.626;                                  !- ASHRAE Taud {dimensionless}

OS:SizingPeriod:DesignDay,
  {e6cf10b4-46c3-4052-b771-eb14cfe8fa89}, !- Handle
  Washington National December .4% Condns WB=>MCDB 1, !- Name
  18.3,                                   !- Maximum Dry-Bulb Temperature {C}
  7.4,                                    !- Daily Dry-Bulb Temperature Range {deltaC}
  16.6,                                   !- Humidity Indicating Conditions at Maximum Dry-Bulb
  101085,                                 !- Barometric Pressure {Pa}
  4.6,                                    !- Wind Speed {m/s}
  170,                                    !- Wind Direction {deg}
  0,                                      !- Sky Clearness
  0,                                      !- Rain Indicator
  0,                                      !- Snow Indicator
  21,                                     !- Day of Month
  12,                                     !- Month
  SummerDesignDay,                        !- Day Type
  0,                                      !- Daylight Saving Time Indicator
  Wetbulb,                                !- Humidity Indicating Type
  ,                                       !- Humidity Indicating Day Schedule Name
  DefaultMultipliers,                     !- Dry-Bulb Temperature Range Modifier Type
  ,                                       !- Dry-Bulb Temperature Range Modifier Schedule Name
  ASHRAETau,                              !- Solar Model Indicator
  ,                                       !- Beam Solar Day Schedule Name
  ,                                       !- Diffuse Solar Day Schedule Name
  0.31,                                   !- ASHRAE Taub {dimensionless}
  2.626;                                  !- ASHRAE Taud {dimensionless}

OS:SizingPeriod:DesignDay,
  {59c58551-e94b-48f6-b79c-b92710024bec}, !- Handle
  Washington National February .4% Condns DB=>MCWB 1, !- Name
  20.3,                                   !- Maximum Dry-Bulb Temperature {C}
  8.3,                                    !- Daily Dry-Bulb Temperature Range {deltaC}
  13.9,                                   !- Humidity Indicating Conditions at Maximum Dry-Bulb
  101085,                                 !- Barometric Pressure {Pa}
  4.6,                                    !- Wind Speed {m/s}
  170,                                    !- Wind Direction {deg}
  0,                                      !- Sky Clearness
  0,                                      !- Rain Indicator
  0,                                      !- Snow Indicator
  21,                                     !- Day of Month
  2,                                      !- Month
  SummerDesignDay,                        !- Day Type
  0,                                      !- Daylight Saving Time Indicator
  Wetbulb,                                !- Humidity Indicating Type
  ,                                       !- Humidity Indicating Day Schedule Name
  DefaultMultipliers,                     !- Dry-Bulb Temperature Range Modifier Type
  ,                                       !- Dry-Bulb Temperature Range Modifier Schedule Name
  ASHRAETau,                              !- Solar Model Indicator
  ,                                       !- Beam Solar Day Schedule Name
  ,                                       !- Diffuse Solar Day Schedule Name
  0.337,                                  !- ASHRAE Taub {dimensionless}
  2.454;                                  !- ASHRAE Taud {dimensionless}

OS:SizingPeriod:DesignDay,
  {2d615a94-a009-450d-8418-b991ae59f5c7}, !- Handle
  Washington National February .4% Condns WB=>MCDB 1, !- Name
  18.5,                                   !- Maximum Dry-Bulb Temperature {C}
  8.3,                                    !- Daily Dry-Bulb Temperature Range {deltaC}
  15.6,                                   !- Humidity Indicating Conditions at Maximum Dry-Bulb
  101085,                                 !- Barometric Pressure {Pa}
  4.6,                                    !- Wind Speed {m/s}
  170,                                    !- Wind Direction {deg}
  0,                                      !- Sky Clearness
  0,                                      !- Rain Indicator
  0,                                      !- Snow Indicator
  21,                                     !- Day of Month
  2,                                      !- Month
  SummerDesignDay,                        !- Day Type
  0,                                      !- Daylight Saving Time Indicator
  Wetbulb,                                !- Humidity Indicating Type
  ,                                       !- Humidity Indicating Day Schedule Name
  DefaultMultipliers,                     !- Dry-Bulb Temperature Range Modifier Type
  ,                                       !- Dry-Bulb Temperature Range Modifier Schedule Name
  ASHRAETau,                              !- Solar Model Indicator
  ,                                       !- Beam Solar Day Schedule Name
  ,                                       !- Diffuse Solar Day Schedule Name
  0.337,                                  !- ASHRAE Taub {dimensionless}
  2.454;                                  !- ASHRAE Taud {dimensionless}

OS:SizingPeriod:DesignDay,
  {dd4992e1-0c94-4e32-a594-02dc88795789}, !- Handle
  Washington National January .4% Condns DB=>MCWB 1, !- Name
  18.8,                                   !- Maximum Dry-Bulb Temperature {C}
  7.6,                                    !- Daily Dry-Bulb Temperature Range {deltaC}
  14.1,                                   !- Humidity Indicating Conditions at Maximum Dry-Bulb
  101085,                                 !- Barometric Pressure {Pa}
  4.6,                                    !- Wind Speed {m/s}