
OS:Version,
  {70f48350-3ac6-4456-bf53-ab343b4b10fa}, !- Handle
  2.9.0;                                  !- Version Identifier

OS:WeatherFile,
  {2fb1dc05-ead9-439d-9baa-c439e9b271b0}, !- Handle
  Baltimore Washingto,                    !- City
  MD,                                     !- State Province Region
  USA,                                    !- Country
  customized weather file,                !- Data Source
  724060,                                 !- WMO Number
  39.17,                                  !- Latitude {deg}
  -76.68,                                 !- Longitude {deg}
  -5,                                     !- Time Zone {hr}
  47,                                     !- Elevation {m}
  file:////var/simdata/openstudio/weather/USA_MD_Baltimore.Washingto.724060_2012.epw, !- Url
  226BE93E;                               !- Checksum

OS:YearDescription,
  {7c2f0b32-d68d-46d7-bd9a-c0966c4a8343}, !- Handle
  2018,                                   !- Calendar Year
  ,                                       !- Day of Week for Start Day
  ;                                       !- Is Leap Year

OS:Timestep,
  {877af5a2-e062-4333-ac0d-a31b35edd49e}, !- Handle
  4;                                      !- Number of Timesteps per Hour

OS:RunPeriod,
  {dbc1c89d-9f66-489e-948d-6709ad224b5d}, !- Handle
  Run Period 1,                           !- Name
  1,                                      !- Begin Month
  1,                                      !- Begin Day of Month
  12,                                     !- End Month
  31,                                     !- End Day of Month
  ,                                       !- Use Weather File Holidays and Special Days
  ,                                       !- Use Weather File Daylight Saving Period
  ,                                       !- Apply Weekend Holiday Rule
  ,                                       !- Use Weather File Rain Indicators
  ,                                       !- Use Weather File Snow Indicators
  ;                                       !- Number of Times Runperiod to be Repeated

OS:Site,
  {9518b2d4-b57f-4e46-880d-61922dc470b6}, !- Handle
  Baltimore Washingto_MD_USA,             !- Name
  39.17,                                  !- Latitude {deg}
  -76.68,                                 !- Longitude {deg}
  -5,                                     !- Time Zone {hr}
  47,                                     !- Elevation {m}
  City;                                   !- Terrain

OS:Site:WaterMainsTemperature,
  {b517740e-c3c3-45f6-98ea-0b9e2df64b29}, !- Handle
  Correlation,                            !- Calculation Method
  ,                                       !- Temperature Schedule Name
  14.825,                                 !- Annual Average Outdoor Air Temperature {C}
  23.8;                                   !- Maximum Difference In Monthly Average Outdoor Air Temperatures {deltaC}

OS:SizingPeriod:DesignDay,
  {3fb14ca8-ea86-4c35-8289-c16ad053696d}, !- Handle
  Baltimore Washingto Ann Clg .4% Condns DB=>MWB 1, !- Name
  34.4,                                   !- Maximum Dry-Bulb Temperature {C}
  10.3,                                   !- Daily Dry-Bulb Temperature Range {deltaC}
  23.8,                                   !- Humidity Indicating Conditions at Maximum Dry-Bulb
  100762,                                 !- Barometric Pressure {Pa}
  4.4,                                    !- Wind Speed {m/s}
  280,                                    !- Wind Direction {deg}
  0,                                      !- Sky Clearness
  0,                                      !- Rain Indicator
  0,                                      !- Snow Indicator
  21,                                     !- Day of Month
  7,                                      !- Month
  SummerDesignDay,                        !- Day Type
  0,                                      !- Daylight Saving Time Indicator
  Wetbulb,                                !- Humidity Indicating Type
  ,                                       !- Humidity Indicating Day Schedule Name
  DefaultMultipliers,                     !- Dry-Bulb Temperature Range Modifier Type
  ,                                       !- Dry-Bulb Temperature Range Modifier Schedule Name
  ASHRAETau,                              !- Solar Model Indicator
  ,                                       !- Beam Solar Day Schedule Name
  ,                                       !- Diffuse Solar Day Schedule Name
  0.455,                                  !- ASHRAE Taub {dimensionless}
  2.129;                                  !- ASHRAE Taud {dimensionless}

OS:SizingPeriod:DesignDay,
  {6c68a997-bb39-4906-9fb3-84f920610001}, !- Handle
  Baltimore Washingto Ann Clg .4% Condns WB=>MDB 1, !- Name
  31.5,                                   !- Maximum Dry-Bulb Temperature {C}
  10.3,                                   !- Daily Dry-Bulb Temperature Range {deltaC}
  25.6,                                   !- Humidity Indicating Conditions at Maximum Dry-Bulb
  100762,                                 !- Barometric Pressure {Pa}
  4.4,                                    !- Wind Speed {m/s}
  280,                                    !- Wind Direction {deg}
  0,                                      !- Sky Clearness
  0,                                      !- Rain Indicator
  0,                                      !- Snow Indicator
  21,                                     !- Day of Month
  7,                                      !- Month
  SummerDesignDay,                        !- Day Type
  0,                                      !- Daylight Saving Time Indicator
  Wetbulb,                                !- Humidity Indicating Type
  ,                                       !- Humidity Indicating Day Schedule Name
  DefaultMultipliers,                     !- Dry-Bulb Temperature Range Modifier Type
  ,                                       !- Dry-Bulb Temperature Range Modifier Schedule Name
  ASHRAETau,                              !- Solar Model Indicator
  ,                                       !- Beam Solar Day Schedule Name
  ,                                       !- Diffuse Solar Day Schedule Name
  0.455,                                  !- ASHRAE Taub {dimensionless}
  2.129;                                  !- ASHRAE Taud {dimensionless}

OS:SizingPeriod:DesignDay,
  {cd502358-4d4c-44d1-96ef-015364286ff6}, !- Handle
  Baltimore Washingto Ann Clg 1% Condns DB=>MWB 1, !- Name
  32.9,                                   !- Maximum Dry-Bulb Temperature {C}
  10.3,                                   !- Daily Dry-Bulb Temperature Range {deltaC}
  23.4,                                   !- Humidity Indicating Conditions at Maximum Dry-Bulb
  100762,                                 !- Barometric Pressure {Pa}
  4.4,                                    !- Wind Speed {m/s}
  280,                                    !- Wind Direction {deg}
  0,                                      !- Sky Clearness
  0,                                      !- Rain Indicator
  0,                                      !- Snow Indicator
  21,                                     !- Day of Month
  7,                                      !- Month
  SummerDesignDay,                        !- Day Type
  0,                                      !- Daylight Saving Time Indicator
  Wetbulb,                                !- Humidity Indicating Type
  ,                                       !- Humidity Indicating Day Schedule Name
  DefaultMultipliers,                     !- Dry-Bulb Temperature Range Modifier Type
  ,                                       !- Dry-Bulb Temperature Range Modifier Schedule Name
  ASHRAETau,                              !- Solar Model Indicator
  ,                                       !- Beam Solar Day Schedule Name
  ,                                       !- Diffuse Solar Day Schedule Name
  0.455,                                  !- ASHRAE Taub {dimensionless}
  2.129;                                  !- ASHRAE Taud {dimensionless}

OS:SizingPeriod:DesignDay,
  {4d169e73-9557-4c30-b17c-05ff8181492a}, !- Handle
  Baltimore Washingto Ann Clg 2% Condns DP=>MDB 1, !- Name
  26.5,                                   !- Maximum Dry-Bulb Temperature {C}
  10.3,                                   !- Daily Dry-Bulb Temperature Range {deltaC}
  22.8,                                   !- Humidity Indicating Conditions at Maximum Dry-Bulb
  100762,                                 !- Barometric Pressure {Pa}
  4.4,                                    !- Wind Speed {m/s}
  280,                                    !- Wind Direction {deg}
  0,                                      !- Sky Clearness
  0,                                      !- Rain Indicator
  0,                                      !- Snow Indicator
  21,                                     !- Day of Month
  7,                                      !- Month
  SummerDesignDay,                        !- Day Type
  0,                                      !- Daylight Saving Time Indicator
  Dewpoint,                               !- Humidity Indicating Type
  ,                                       !- Humidity Indicating Day Schedule Name
  DefaultMultipliers,                     !- Dry-Bulb Temperature Range Modifier Type
  ,                                       !- Dry-Bulb Temperature Range Modifier Schedule Name
  ASHRAETau,                              !- Solar Model Indicator
  ,                                       !- Beam Solar Day Schedule Name
  ,                                       !- Diffuse Solar Day Schedule Name
  0.455,                                  !- ASHRAE Taub {dimensionless}
  2.129;                                  !- ASHRAE Taud {dimensionless}

OS:SizingPeriod:DesignDay,
  {f798f675-5a40-49ae-90f3-fafb08a0852a}, !- Handle
  Baltimore Washingto Ann Htg 99% Condns DB 1, !- Name
  -7.8,                                   !- Maximum Dry-Bulb Temperature {C}
  0,                                      !- Daily Dry-Bulb Temperature Range {deltaC}
  -7.8,                                   !- Humidity Indicating Conditions at Maximum Dry-Bulb
  100762,                                 !- Barometric Pressure {Pa}
  3.8,                                    !- Wind Speed {m/s}
  290,                                    !- Wind Direction {deg}
  0,                                      !- Sky Clearness
  0,                                      !- Rain Indicator
  0,                                      !- Snow Indicator
  21,                                     !- Day of Month
  1,                                      !- Month
  WinterDesignDay,                        !- Day Type
  0,                                      !- Daylight Saving Time Indicator
  Wetbulb,                                !- Humidity Indicating Type
  ,                                       !- Humidity Indicating Day Schedule Name
  DefaultMultipliers,                     !- Dry-Bulb Temperature Range Modifier Type
  ,                                       !- Dry-Bulb Temperature Range Modifier Schedule Name
  ASHRAEClearSky;                         !- Solar Model Indicator

OS:SizingPeriod:DesignDay,
  {6d2145d0-d61f-428c-93f5-be47cf75d12f}, !- Handle
  Baltimore Washingto Ann Htg 99.6% Condns DB 1, !- Name
  -10,                                    !- Maximum Dry-Bulb Temperature {C}
  0,                                      !- Daily Dry-Bulb Temperature Range {deltaC}
  -10,                                    !- Humidity Indicating Conditions at Maximum Dry-Bulb
  100762,                                 !- Barometric Pressure {Pa}
  3.8,                                    !- Wind Speed {m/s}
  290,                                    !- Wind Direction {deg}
  0,                                      !- Sky Clearness
  0,                                      !- Rain Indicator
  0,                                      !- Snow Indicator
  21,                                     !- Day of Month
  1,                                      !- Month
  WinterDesignDay,                        !- Day Type
  0,                                      !- Daylight Saving Time Indicator
  Wetbulb,                                !- Humidity Indicating Type
  ,                                       !- Humidity Indicating Day Schedule Name
  DefaultMultipliers,                     !- Dry-Bulb Temperature Range Modifier Type
  ,                                       !- Dry-Bulb Temperature Range Modifier Schedule Name
  ASHRAEClearSky;                         !- Solar Model Indicator

OS:SizingPeriod:DesignDay,
  {8faace48-e8a6-4be9-9c5e-8f72a4e955ab}, !- Handle
  Baltimore Washingto Ann Htg Wind 99% Condns WS=>MCDB 1, !- Name
  1.4,                                    !- Maximum Dry-Bulb Temperature {C}
  0,                                      !- Daily Dry-Bulb Temperature Range {deltaC}
  1.4,                                    !- Humidity Indicating Conditions at Maximum Dry-Bulb
  100762,                                 !- Barometric Pressure {Pa}
  10.7,                                   !- Wind Speed {m/s}
  290,                                    !- Wind Direction {deg}
  0,                                      !- Sky Clearness
  0,                                      !- Rain Indicator
  0,                                      !- Snow Indicator
  21,                                     !- Day of Month
  1,                                      !- Month
  WinterDesignDay,                        !- Day Type
  0,                                      !- Daylight Saving Time Indicator
  Wetbulb,                                !- Humidity Indicating Type
  ,                                       !- Humidity Indicating Day Schedule Name
  DefaultMultipliers,                     !- Dry-Bulb Temperature Range Modifier Type
  ,                                       !- Dry-Bulb Temperature Range Modifier Schedule Name
  ASHRAEClearSky;                         !- Solar Model Indicator

OS:SizingPeriod:DesignDay,
  {f00dddbb-ddc7-459a-bcf2-2491c82685de}, !- Handle
  Baltimore Washingto April .4% Condns DB=>MCWB 1, !- Name
  30.8,                                   !- Maximum Dry-Bulb Temperature {C}
  11.3,                                   !- Daily Dry-Bulb Temperature Range {deltaC}
  19.3,                                   !- Humidity Indicating Conditions at Maximum Dry-Bulb
  100762,                                 !- Barometric Pressure {Pa}
  4.4,                                    !- Wind Speed {m/s}
  280,                                    !- Wind Direction {deg}
  0,                                      !- Sky Clearness
  0,                                      !- Rain Indicator
  0,                                      !- Snow Indicator
  21,                                     !- Day of Month
  4,                                      !- Month
  SummerDesignDay,                        !- Day Type
  0,                                      !- Daylight Saving Time Indicator
  Wetbulb,                                !- Humidity Indicating Type
  ,                                       !- Humidity Indicating Day Schedule Name
  DefaultMultipliers,                     !- Dry-Bulb Temperature Range Modifier Type
  ,                                       !- Dry-Bulb Temperature Range Modifier Schedule Name
  ASHRAETau,                              !- Solar Model Indicator
  ,                                       !- Beam Solar Day Schedule Name
  ,                                       !- Diffuse Solar Day Schedule Name
  0.406,                                  !- ASHRAE Taub {dimensionless}
  2.232;                                  !- ASHRAE Taud {dimensionless}

OS:SizingPeriod:DesignDay,
  {4ad1a4f5-988c-4366-bdfc-822005df4230}, !- Handle
  Baltimore Washingto April .4% Condns WB=>MCDB 1, !- Name
  27,                                     !- Maximum Dry-Bulb Temperature {C}
  11.3,                                   !- Daily Dry-Bulb Temperature Range {deltaC}
  20.5,                                   !- Humidity Indicating Conditions at Maximum Dry-Bulb
  100762,                                 !- Barometric Pressure {Pa}
  4.4,                                    !- Wind Speed {m/s}
  280,                                    !- Wind Direction {deg}
  0,                                      !- Sky Clearness
  0,                                      !- Rain Indicator
  0,                                      !- Snow Indicator
  21,                                     !- Day of Month
  4,                                      !- Month
  SummerDesignDay,                        !- Day Type
  0,                                      !- Daylight Saving Time Indicator
  Wetbulb,                                !- Humidity Indicating Type
  ,                                       !- Humidity Indicating Day Schedule Name
  DefaultMultipliers,                     !- Dry-Bulb Temperature Range Modifier Type
  ,                                       !- Dry-Bulb Temperature Range Modifier Schedule Name
  ASHRAETau,                              !- Solar Model Indicator
  ,                                       !- Beam Solar Day Schedule Name
  ,                                       !- Diffuse Solar Day Schedule Name
  0.406,                                  !- ASHRAE Taub {dimensionless}
  2.232;                                  !- ASHRAE Taud {dimensionless}

OS:SizingPeriod:DesignDay,
  {df43ceb4-d629-44b9-8a9e-6e6c79097f50}, !- Handle
  Baltimore Washingto August .4% Condns DB=>MCWB 1, !- Name
  36,                                     !- Maximum Dry-Bulb Temperature {C}
  10.1,                                   !- Daily Dry-Bulb Temperature Range {deltaC}
  24.3,                                   !- Humidity Indicating Conditions at Maximum Dry-Bulb
  100762,                                 !- Barometric Pressure {Pa}
  4.4,                                    !- Wind Speed {m/s}
  280,                                    !- Wind Direction {deg}
  0,                                      !- Sky Clearness
  0,                                      !- Rain Indicator
  0,                                      !- Snow Indicator
  21,                                     !- Day of Month
  8,                                      !- Month
  SummerDesignDay,                        !- Day Type
  0,                                      !- Daylight Saving Time Indicator
  Wetbulb,                                !- Humidity Indicating Type
  ,                                       !- Humidity Indicating Day Schedule Name
  DefaultMultipliers,                     !- Dry-Bulb Temperature Range Modifier Type
  ,                                       !- Dry-Bulb Temperature Range Modifier Schedule Name
  ASHRAETau,                              !- Solar Model Indicator
  ,                                       !- Beam Solar Day Schedule Name
  ,                                       !- Diffuse Solar Day Schedule Name
  0.44,                                   !- ASHRAE Taub {dimensionless}
  2.186;                                  !- ASHRAE Taud {dimensionless}

OS:SizingPeriod:DesignDay,
  {8f384659-cd3c-48fb-b6f1-2d3f62314c1d}, !- Handle
  Baltimore Washingto August .4% Condns WB=>MCDB 1, !- Name
  32.2,                                   !- Maximum Dry-Bulb Temperature {C}
  10.1,                                   !- Daily Dry-Bulb Temperature Range {deltaC}
  26.4,                                   !- Humidity Indicating Conditions at Maximum Dry-Bulb
  100762,                                 !- Barometric Pressure {Pa}
  4.4,                                    !- Wind Speed {m/s}
  280,                                    !- Wind Direction {deg}
  0,                                      !- Sky Clearness
  0,                                      !- Rain Indicator
  0,                                      !- Snow Indicator
  21,                                     !- Day of Month
  8,                                      !- Month
  SummerDesignDay,                        !- Day Type
  0,                                      !- Daylight Saving Time Indicator
  Wetbulb,                                !- Humidity Indicating Type
  ,                                       !- Humidity Indicating Day Schedule Name
  DefaultMultipliers,                     !- Dry-Bulb Temperature Range Modifier Type
  ,                                       !- Dry-Bulb Temperature Range Modifier Schedule Name
  ASHRAETau,                              !- Solar Model Indicator
  ,                                       !- Beam Solar Day Schedule Name
  ,                                       !- Diffuse Solar Day Schedule Name
  0.44,                                   !- ASHRAE Taub {dimensionless}
  2.186;                                  !- ASHRAE Taud {dimensionless}

OS:SizingPeriod:DesignDay,
  {84aef126-65ac-4f56-850b-2e1ccdf1f286}, !- Handle
  Baltimore Washingto December .4% Condns DB=>MCWB 1, !- Name
  19.5,                                   !- Maximum Dry-Bulb Temperature {C}
  8.7,                                    !- Daily Dry-Bulb Temperature Range {deltaC}
  15.4,                                   !- Humidity Indicating Conditions at Maximum Dry-Bulb
  100762,                                 !- Barometric Pressure {Pa}
  4.4,                                    !- Wind Speed {m/s}
  280,                                    !- Wind Direction {deg}
  0,                                      !- Sky Clearness
  0,                                      !- Rain Indicator
  0,                                      !- Snow Indicator
  21,                                     !- Day of Month
  12,                                     !- Month
  SummerDesignDay,                        !- Day Type
  0,                                      !- Daylight Saving Time Indicator
  Wetbulb,                                !- Humidity Indicating Type
  ,                                       !- Humidity Indicating Day Schedule Name
  DefaultMultipliers,                     !- Dry-Bulb Temperature Range Modifier Type
  ,                                       !- Dry-Bulb Temperature Range Modifier Schedule Name
  ASHRAETau,                              !- Solar Model Indicator
  ,                                       !- Beam Solar Day Schedule Name
  ,                                       !- Diffuse Solar Day Schedule Name
  0.325,                                  !- ASHRAE Taub {dimensionless}
  2.534;                                  !- ASHRAE Taud {dimensionless}

OS:SizingPeriod:DesignDay,
  {b2c99890-aa65-4edc-92e2-42d0ae28d645}, !- Handle
  Baltimore Washingto December .4% Condns WB=>MCDB 1, !- Name
  19.1,                                   !- Maximum Dry-Bulb Temperature {C}
  8.7,                                    !- Daily Dry-Bulb Temperature Range {deltaC}
  16.3,                                   !- Humidity Indicating Conditions at Maximum Dry-Bulb
  100762,                                 !- Barometric Pressure {Pa}
  4.4,                                    !- Wind Speed {m/s}
  280,                                    !- Wind Direction {deg}
  0,                                      !- Sky Clearness
  0,                                      !- Rain Indicator
  0,                                      !- Snow Indicator
  21,                                     !- Day of Month
  12,                                     !- Month
  SummerDesignDay,                        !- Day Type
  0,                                      !- Daylight Saving Time Indicator
  Wetbulb,                                !- Humidity Indicating Type
  ,                                       !- Humidity Indicating Day Schedule Name
  DefaultMultipliers,                     !- Dry-Bulb Temperature Range Modifier Type
  ,                                       !- Dry-Bulb Temperature Range Modifier Schedule Name
  ASHRAETau,                              !- Solar Model Indicator
  ,                                       !- Beam Solar Day Schedule Name
  ,                                       !- Diffuse Solar Day Schedule Name
  0.325,                                  !- ASHRAE Taub {dimensionless}
  2.534;                                  !- ASHRAE Taud {dimensionless}

OS:SizingPeriod:DesignDay,
  {ca5e24ca-e314-4ecf-bcb0-eeba5f97c354}, !- Handle
  Baltimore Washingto February .4% Condns DB=>MCWB 1, !- Name
  20.3,                                   !- Maximum Dry-Bulb Temperature {C}
  9.3,                                    !- Daily Dry-Bulb Temperature Range {deltaC}
  14,                                     !- Humidity Indicating Conditions at Maximum Dry-Bulb
  100762,                                 !- Barometric Pressure {Pa}
  4.4,                                    !- Wind Speed {m/s}
  280,                                    !- Wind Direction {deg}
  0,                                      !- Sky Clearness
  0,                                      !- Rain Indicator
  0,                                      !- Snow Indicator
  21,                                     !- Day of Month
  2,                                      !- Month
  SummerDesignDay,                        !- Day Type
  0,                                      !- Daylight Saving Time Indicator
  Wetbulb,                                !- Humidity Indicating Type
  ,                                       !- Humidity Indicating Day Schedule Name
  DefaultMultipliers,                     !- Dry-Bulb Temperature Range Modifier Type
  ,                                       !- Dry-Bulb Temperature Range Modifier Schedule Name
  ASHRAETau,                              !- Solar Model Indicator
  ,                                       !- Beam Solar Day Schedule Name
  ,                                       !- Diffuse Solar Day Schedule Name
  0.333,                                  !- ASHRAE Taub {dimensionless}
  2.458;                                  !- ASHRAE Taud {dimensionless}

OS:SizingPeriod:DesignDay,
  {7063bedc-4401-4457-b85c-5831a7dd7bdf}, !- Handle
  Baltimore Washingto February .4% Condns WB=>MCDB 1, !- Name
  18.5,                                   !- Maximum Dry-Bulb Temperature {C}
  9.3,                                    !- Daily Dry-Bulb Temperature Range {deltaC}
  15.6,                                   !- Humidity Indicating Conditions at Maximum Dry-Bulb
  100762,                                 !- Barometric Pressure {Pa}
  4.4,                                    !- Wind Speed {m/s}
  280,                                    !- Wind Direction {deg}
  0,                                      !- Sky Clearness
  0,                                      !- Rain Indicator
  0,                                      !- Snow Indicator
  21,                                     !- Day of Month
  2,                                      !- Month
  SummerDesignDay,                        !- Day Type
  0,                                      !- Daylight Saving Time Indicator
  Wetbulb,                                !- Humidity Indicating Type
  ,                                       !- Humidity Indicating Day Schedule Name
  DefaultMultipliers,                     !- Dry-Bulb Temperature Range Modifier Type
  ,                                       !- Dry-Bulb Temperature Range Modifier Schedule Name
  ASHRAETau,                              !- Solar Model Indicator
  ,                                       !- Beam Solar Day Schedule Name
  ,                                       !- Diffuse Solar Day Schedule Name
  0.333,                                  !- ASHRAE Taub {dimensionless}
  2.458;                                  !- ASHRAE Taud {dimensionless}

OS:SizingPeriod:DesignDay,
  {dcef0416-ee51-4cd9-9f85-f2f004d09039}, !- Handle
  Baltimore Washingto January .4% Condns DB=>MCWB 1, !- Name
  18.9,                                   !- Maximum Dry-Bulb Temperature {C}
  8.7,                                    !- Daily Dry-Bulb Temperature Range {deltaC}
  14.5,                                   !- Humidity Indicating Conditions at Maximum Dry-Bulb
  100762,                                 !- Barometric Pressure {Pa}
  4.4,                                    !- Wind Speed {m/s}
  280,                                    !- Wind Direction {deg}
  0,                                      !- Sky Clearness
  0,                                      !- Rain Indicator
  0,                                      !- Snow Indicator
  21,                                     !- Day of Month
  1,                                      !- Month
  SummerDesignDay,                        !- Day Type
  0,                                      !- Daylight Saving Time Indicator
  Wetbulb,                                !- Humidity Indicating Type
  ,                                       !- Humidity Indicating Day Schedule Name
  DefaultMultipliers,                     !- Dry-Bulb Temperature Range Modifier Type
  ,                                       !- Dry-Bulb Temperature Range Modifier Schedule Name
  ASHRAETau,                              !- Solar Model Indicator
  ,                                       !- Beam Solar Day Schedule Name
  ,                                       !- Diffuse Solar Day Schedule Name
  0.32,                                   !- ASHRAE Taub {dimensionless}
  2.486;                                  !- ASHRAE Taud {dimensionless}

OS:SizingPeriod:DesignDay,
  {77436eba-2677-4f43-b62c-f68b63a3406f}, !- Handle
  Baltimore Washingto January .4% Condns WB=>MCDB 1, !- Name
  17.5,                                   !- Maximum Dry-Bulb Temperature {C}
  8.7,                                    !- Daily Dry-Bulb Temperature Range {deltaC}
  15.8,                                   !- Humidity Indicating Conditions at Maximum Dry-Bulb
  100762,                                 !- Barometric Pressure {Pa}