
OS:Version,
  {16e96079-360a-4169-bb3e-e5a231e2dc34}, !- Handle
  2.9.1;                                  !- Version Identifier

OS:Facility,
  {808ca846-4951-4a6c-bb8c-2a62224cfbda}; !- Handle

OS:Site,
  {a9b7454e-d1da-43e0-b41a-8a82e94884f2}, !- Handle
  Deer Park Arpt_WA_USA,                  !- Name
  47.97,                                  !- Latitude {deg}
  -117.42,                                !- Longitude {deg}
  -8,                                     !- Time Zone {hr}
  672,                                    !- Elevation {m}
  City;                                   !- Terrain

OS:SimulationControl,
  {a0083170-8d85-4e11-a64f-a78e208705ac}, !- Handle
  ,                                       !- Do Zone Sizing Calculation
  ,                                       !- Do System Sizing Calculation
  ,                                       !- Do Plant Sizing Calculation
  No,                                     !- Run Simulation for Sizing Periods
  Yes;                                    !- Run Simulation for Weather File Run Periods

OS:Sizing:Parameters,
  {68706b9c-f98e-4761-a457-536126d49a89}, !- Handle
  1.25,                                   !- Heating Sizing Factor
  1.15;                                   !- Cooling Sizing Factor

OS:Timestep,
  {28230644-f269-4be2-884c-9328ae0fcfb2}, !- Handle
  4;                                      !- Number of Timesteps per Hour

OS:ShadowCalculation,
  {d0d7673f-d398-489e-9f3b-6b0af491e3a6}, !- Handle
  20,                                     !- Calculation Frequency
  15000;                                  !- Maximum Figures in Shadow Overlap Calculations

OS:HeatBalanceAlgorithm,
  {e891540f-7626-4eee-8777-b3e96543c5c4}, !- Handle
  ConductionTransferFunction,             !- Algorithm
  200;                                    !- Surface Temperature Upper Limit {C}

OS:RunPeriod,
  {5461c3b1-e8ac-462d-ac6d-98ca669dcc8e}, !- Handle
  Run Period 1,                           !- Name
  1,                                      !- Begin Month
  1,                                      !- Begin Day of Month
  12,                                     !- End Month
  31,                                     !- End Day of Month
  ,                                       !- Use Weather File Holidays and Special Days
  ,                                       !- Use Weather File Daylight Saving Period
  ,                                       !- Apply Weekend Holiday Rule
  ,                                       !- Use Weather File Rain Indicators
  ,                                       !- Use Weather File Snow Indicators
  ;                                       !- Number of Times Runperiod to be Repeated

OS:LifeCycleCost:Parameters,
  {30b58623-6eea-4e5e-b2fd-c0528c5fad29}, !- Handle
  ,                                       !- Analysis Type
  ,                                       !- Discounting Convention
  ,                                       !- Inflation Approach
  ,                                       !- Real Discount Rate
  ,                                       !- Nominal Discount Rate
  ,                                       !- Inflation
  ,                                       !- Base Date Month
  ,                                       !- Base Date Year
  ,                                       !- Service Date Month
  ,                                       !- Service Date Year
  ;                                       !- Length of Study Period in Years

OS:WeatherFile,
  {87da2c40-2ac6-4696-97cf-17eb97644d84}, !- Handle
  Deer Park Arpt,                         !- City
  WA,                                     !- State Province Region
  USA,                                    !- Country
  customized weather file,                !- Data Source
  727854,                                 !- WMO Number
  47.97,                                  !- Latitude {deg}
  -117.42,                                !- Longitude {deg}
  -8,                                     !- Time Zone {hr}
  672,                                    !- Elevation {m}
  file:////weather/G5300630.epw,          !- Url
  226BE93E;                               !- Checksum

OS:Site:WaterMainsTemperature,
  {4c2a3c16-3f19-4380-8fa9-44773f0cd93d}, !- Handle
  Correlation,                            !- Calculation Method
  ,                                       !- Temperature Schedule Name
  8.31416666666667,                       !- Annual Average Outdoor Air Temperature {C}
  23.39;                                  !- Maximum Difference In Monthly Average Outdoor Air Temperatures {deltaC}

OS:SizingPeriod:DesignDay,
  {4a0f3c43-0fd8-4422-ab6e-788bd9e84bff}, !- Handle
  Deer Park Arpt Ann Clg .4% Condns DB=>MWB 1, !- Name
  33.8,                                   !- Maximum Dry-Bulb Temperature {C}
  19.4,                                   !- Daily Dry-Bulb Temperature Range {deltaC}
  17,                                     !- Humidity Indicating Conditions at Maximum Dry-Bulb
  93508,                                  !- Barometric Pressure {Pa}
  3.2,                                    !- Wind Speed {m/s}
  210,                                    !- Wind Direction {deg}
  0,                                      !- Sky Clearness
  0,                                      !- Rain Indicator
  0,                                      !- Snow Indicator
  21,                                     !- Day of Month
  7,                                      !- Month
  SummerDesignDay,                        !- Day Type
  0,                                      !- Daylight Saving Time Indicator
  Wetbulb,                                !- Humidity Indicating Type
  ,                                       !- Humidity Indicating Day Schedule Name
  DefaultMultipliers,                     !- Dry-Bulb Temperature Range Modifier Type
  ,                                       !- Dry-Bulb Temperature Range Modifier Schedule Name
  ASHRAETau,                              !- Solar Model Indicator
  ,                                       !- Beam Solar Day Schedule Name
  ,                                       !- Diffuse Solar Day Schedule Name
  0.299,                                  !- ASHRAE Taub {dimensionless}
  2.513;                                  !- ASHRAE Taud {dimensionless}

OS:SizingPeriod:DesignDay,
  {2a0aa1da-717a-45da-9ebf-2ee415c8e039}, !- Handle
  Deer Park Arpt Ann Clg .4% Condns WB=>MDB 1, !- Name
  30.4,                                   !- Maximum Dry-Bulb Temperature {C}
  19.4,                                   !- Daily Dry-Bulb Temperature Range {deltaC}
  18.4,                                   !- Humidity Indicating Conditions at Maximum Dry-Bulb
  93508,                                  !- Barometric Pressure {Pa}
  3.2,                                    !- Wind Speed {m/s}
  210,                                    !- Wind Direction {deg}
  0,                                      !- Sky Clearness
  0,                                      !- Rain Indicator
  0,                                      !- Snow Indicator
  21,                                     !- Day of Month
  7,                                      !- Month
  SummerDesignDay,                        !- Day Type
  0,                                      !- Daylight Saving Time Indicator
  Wetbulb,                                !- Humidity Indicating Type
  ,                                       !- Humidity Indicating Day Schedule Name
  DefaultMultipliers,                     !- Dry-Bulb Temperature Range Modifier Type
  ,                                       !- Dry-Bulb Temperature Range Modifier Schedule Name
  ASHRAETau,                              !- Solar Model Indicator
  ,                                       !- Beam Solar Day Schedule Name
  ,                                       !- Diffuse Solar Day Schedule Name
  0.299,                                  !- ASHRAE Taub {dimensionless}
  2.513;                                  !- ASHRAE Taud {dimensionless}

OS:SizingPeriod:DesignDay,
  {8387eb1a-a381-4fa0-88c1-696e820b9140}, !- Handle
  Deer Park Arpt Ann Clg 1% Condns DB=>MWB 1, !- Name
  32.3,                                   !- Maximum Dry-Bulb Temperature {C}
  19.4,                                   !- Daily Dry-Bulb Temperature Range {deltaC}
  16.6,                                   !- Humidity Indicating Conditions at Maximum Dry-Bulb
  93508,                                  !- Barometric Pressure {Pa}
  3.2,                                    !- Wind Speed {m/s}
  210,                                    !- Wind Direction {deg}
  0,                                      !- Sky Clearness
  0,                                      !- Rain Indicator
  0,                                      !- Snow Indicator
  21,                                     !- Day of Month
  7,                                      !- Month
  SummerDesignDay,                        !- Day Type
  0,                                      !- Daylight Saving Time Indicator
  Wetbulb,                                !- Humidity Indicating Type
  ,                                       !- Humidity Indicating Day Schedule Name
  DefaultMultipliers,                     !- Dry-Bulb Temperature Range Modifier Type
  ,                                       !- Dry-Bulb Temperature Range Modifier Schedule Name
  ASHRAETau,                              !- Solar Model Indicator
  ,                                       !- Beam Solar Day Schedule Name
  ,                                       !- Diffuse Solar Day Schedule Name
  0.299,                                  !- ASHRAE Taub {dimensionless}
  2.513;                                  !- ASHRAE Taud {dimensionless}

OS:SizingPeriod:DesignDay,
  {d4b5716c-7af2-4da3-8b30-d35cf1d0b576}, !- Handle
  Deer Park Arpt Ann Clg 2% Condns DP=>MDB 1, !- Name
  18.7,                                   !- Maximum Dry-Bulb Temperature {C}
  19.4,                                   !- Daily Dry-Bulb Temperature Range {deltaC}
  12.4,                                   !- Humidity Indicating Conditions at Maximum Dry-Bulb
  93508,                                  !- Barometric Pressure {Pa}
  3.2,                                    !- Wind Speed {m/s}
  210,                                    !- Wind Direction {deg}
  0,                                      !- Sky Clearness
  0,                                      !- Rain Indicator
  0,                                      !- Snow Indicator
  21,                                     !- Day of Month
  7,                                      !- Month
  SummerDesignDay,                        !- Day Type
  0,                                      !- Daylight Saving Time Indicator
  Dewpoint,                               !- Humidity Indicating Type
  ,                                       !- Humidity Indicating Day Schedule Name
  DefaultMultipliers,                     !- Dry-Bulb Temperature Range Modifier Type
  ,                                       !- Dry-Bulb Temperature Range Modifier Schedule Name
  ASHRAETau,                              !- Solar Model Indicator
  ,                                       !- Beam Solar Day Schedule Name
  ,                                       !- Diffuse Solar Day Schedule Name
  0.299,                                  !- ASHRAE Taub {dimensionless}
  2.513;                                  !- ASHRAE Taud {dimensionless}

OS:SizingPeriod:DesignDay,
  {39748a55-921f-4f8c-b8ca-8026295d507e}, !- Handle
  Deer Park Arpt Ann Htg 99% Condns DB 1, !- Name
  -12.8,                                  !- Maximum Dry-Bulb Temperature {C}
  0,                                      !- Daily Dry-Bulb Temperature Range {deltaC}
  -12.8,                                  !- Humidity Indicating Conditions at Maximum Dry-Bulb
  93508,                                  !- Barometric Pressure {Pa}
  1.6,                                    !- Wind Speed {m/s}
  340,                                    !- Wind Direction {deg}
  0,                                      !- Sky Clearness
  0,                                      !- Rain Indicator
  0,                                      !- Snow Indicator
  21,                                     !- Day of Month
  12,                                     !- Month
  WinterDesignDay,                        !- Day Type
  0,                                      !- Daylight Saving Time Indicator
  Wetbulb,                                !- Humidity Indicating Type
  ,                                       !- Humidity Indicating Day Schedule Name
  DefaultMultipliers,                     !- Dry-Bulb Temperature Range Modifier Type
  ,                                       !- Dry-Bulb Temperature Range Modifier Schedule Name
  ASHRAEClearSky;                         !- Solar Model Indicator

OS:SizingPeriod:DesignDay,
  {187b71e6-8761-4013-bc65-c26515e45ad2}, !- Handle
  Deer Park Arpt Ann Htg 99.6% Condns DB 1, !- Name
  -17.1,                                  !- Maximum Dry-Bulb Temperature {C}
  0,                                      !- Daily Dry-Bulb Temperature Range {deltaC}
  -17.1,                                  !- Humidity Indicating Conditions at Maximum Dry-Bulb
  93508,                                  !- Barometric Pressure {Pa}
  1.6,                                    !- Wind Speed {m/s}
  340,                                    !- Wind Direction {deg}
  0,                                      !- Sky Clearness
  0,                                      !- Rain Indicator
  0,                                      !- Snow Indicator
  21,                                     !- Day of Month
  12,                                     !- Month
  WinterDesignDay,                        !- Day Type
  0,                                      !- Daylight Saving Time Indicator
  Wetbulb,                                !- Humidity Indicating Type
  ,                                       !- Humidity Indicating Day Schedule Name
  DefaultMultipliers,                     !- Dry-Bulb Temperature Range Modifier Type
  ,                                       !- Dry-Bulb Temperature Range Modifier Schedule Name
  ASHRAEClearSky;                         !- Solar Model Indicator

OS:SizingPeriod:DesignDay,
  {c4e464d5-341c-4d88-92a2-876c30367b0c}, !- Handle
  Deer Park Arpt Ann Htg Wind 99% Condns WS=>MCDB 1, !- Name
  -1.8,                                   !- Maximum Dry-Bulb Temperature {C}
  0,                                      !- Daily Dry-Bulb Temperature Range {deltaC}
  -1.8,                                   !- Humidity Indicating Conditions at Maximum Dry-Bulb
  93508,                                  !- Barometric Pressure {Pa}
  9.8,                                    !- Wind Speed {m/s}
  340,                                    !- Wind Direction {deg}
  0,                                      !- Sky Clearness
  0,                                      !- Rain Indicator
  0,                                      !- Snow Indicator
  21,                                     !- Day of Month
  12,                                     !- Month
  WinterDesignDay,                        !- Day Type
  0,                                      !- Daylight Saving Time Indicator
  Wetbulb,                                !- Humidity Indicating Type
  ,                                       !- Humidity Indicating Day Schedule Name
  DefaultMultipliers,                     !- Dry-Bulb Temperature Range Modifier Type
  ,                                       !- Dry-Bulb Temperature Range Modifier Schedule Name
  ASHRAEClearSky;                         !- Solar Model Indicator

OS:SizingPeriod:DesignDay,
  {5aec693e-4ba2-4b7d-9fe2-a145cd96cdb2}, !- Handle
  Deer Park Arpt April .4% Condns DB=>MCWB 1, !- Name
  23.7,                                   !- Maximum Dry-Bulb Temperature {C}
  13,                                     !- Daily Dry-Bulb Temperature Range {deltaC}
  12.3,                                   !- Humidity Indicating Conditions at Maximum Dry-Bulb
  93508,                                  !- Barometric Pressure {Pa}
  3.2,                                    !- Wind Speed {m/s}
  210,                                    !- Wind Direction {deg}
  0,                                      !- Sky Clearness
  0,                                      !- Rain Indicator
  0,                                      !- Snow Indicator
  21,                                     !- Day of Month
  4,                                      !- Month
  SummerDesignDay,                        !- Day Type
  0,                                      !- Daylight Saving Time Indicator
  Wetbulb,                                !- Humidity Indicating Type
  ,                                       !- Humidity Indicating Day Schedule Name
  DefaultMultipliers,                     !- Dry-Bulb Temperature Range Modifier Type
  ,                                       !- Dry-Bulb Temperature Range Modifier Schedule Name
  ASHRAETau,                              !- Solar Model Indicator
  ,                                       !- Beam Solar Day Schedule Name
  ,                                       !- Diffuse Solar Day Schedule Name
  0.29,                                   !- ASHRAE Taub {dimensionless}
  2.536;                                  !- ASHRAE Taud {dimensionless}

OS:SizingPeriod:DesignDay,
  {b6549fab-9114-42fe-9725-8705121e0f4c}, !- Handle
  Deer Park Arpt April .4% Condns WB=>MCDB 1, !- Name
  21.9,                                   !- Maximum Dry-Bulb Temperature {C}
  13,                                     !- Daily Dry-Bulb Temperature Range {deltaC}
  12.9,                                   !- Humidity Indicating Conditions at Maximum Dry-Bulb
  93508,                                  !- Barometric Pressure {Pa}
  3.2,                                    !- Wind Speed {m/s}
  210,                                    !- Wind Direction {deg}
  0,                                      !- Sky Clearness
  0,                                      !- Rain Indicator
  0,                                      !- Snow Indicator
  21,                                     !- Day of Month
  4,                                      !- Month
  SummerDesignDay,                        !- Day Type
  0,                                      !- Daylight Saving Time Indicator
  Wetbulb,                                !- Humidity Indicating Type
  ,                                       !- Humidity Indicating Day Schedule Name
  DefaultMultipliers,                     !- Dry-Bulb Temperature Range Modifier Type
  ,                                       !- Dry-Bulb Temperature Range Modifier Schedule Name
  ASHRAETau,                              !- Solar Model Indicator
  ,                                       !- Beam Solar Day Schedule Name
  ,                                       !- Diffuse Solar Day Schedule Name
  0.29,                                   !- ASHRAE Taub {dimensionless}
  2.536;                                  !- ASHRAE Taud {dimensionless}

OS:SizingPeriod:DesignDay,
  {eff04f27-99fa-4a76-a74b-3d2b3c614cd6}, !- Handle
  Deer Park Arpt August .4% Condns DB=>MCWB 1, !- Name
  36.4,                                   !- Maximum Dry-Bulb Temperature {C}
  19.2,                                   !- Daily Dry-Bulb Temperature Range {deltaC}
  16.8,                                   !- Humidity Indicating Conditions at Maximum Dry-Bulb
  93508,                                  !- Barometric Pressure {Pa}
  3.2,                                    !- Wind Speed {m/s}
  210,                                    !- Wind Direction {deg}
  0,                                      !- Sky Clearness
  0,                                      !- Rain Indicator
  0,                                      !- Snow Indicator
  21,                                     !- Day of Month
  8,                                      !- Month
  SummerDesignDay,                        !- Day Type
  0,                                      !- Daylight Saving Time Indicator
  Wetbulb,                                !- Humidity Indicating Type
  ,                                       !- Humidity Indicating Day Schedule Name
  DefaultMultipliers,                     !- Dry-Bulb Temperature Range Modifier Type
  ,                                       !- Dry-Bulb Temperature Range Modifier Schedule Name
  ASHRAETau,                              !- Solar Model Indicator
  ,                                       !- Beam Solar Day Schedule Name
  ,                                       !- Diffuse Solar Day Schedule Name
  0.303,                                  !- ASHRAE Taub {dimensionless}
  2.537;                                  !- ASHRAE Taud {dimensionless}

OS:SizingPeriod:DesignDay,
  {6749ff51-9d51-4651-8d8e-86b7eac45fcc}, !- Handle
  Deer Park Arpt August .4% Condns WB=>MCDB 1, !- Name
  31.7,                                   !- Maximum Dry-Bulb Temperature {C}
  19.2,                                   !- Daily Dry-Bulb Temperature Range {deltaC}
  18.4,                                   !- Humidity Indicating Conditions at Maximum Dry-Bulb
  93508,                                  !- Barometric Pressure {Pa}
  3.2,                                    !- Wind Speed {m/s}
  210,                                    !- Wind Direction {deg}
  0,                                      !- Sky Clearness
  0,                                      !- Rain Indicator
  0,                                      !- Snow Indicator
  21,                                     !- Day of Month
  8,                                      !- Month
  SummerDesignDay,                        !- Day Type
  0,                                      !- Daylight Saving Time Indicator
  Wetbulb,                                !- Humidity Indicating Type
  ,                                       !- Humidity Indicating Day Schedule Name
  DefaultMultipliers,                     !- Dry-Bulb Temperature Range Modifier Type
  ,                                       !- Dry-Bulb Temperature Range Modifier Schedule Name
  ASHRAETau,                              !- Solar Model Indicator
  ,                                       !- Beam Solar Day Schedule Name
  ,                                       !- Diffuse Solar Day Schedule Name
  0.303,                                  !- ASHRAE Taub {dimensionless}
  2.537;                                  !- ASHRAE Taud {dimensionless}

OS:SizingPeriod:DesignDay,
  {d875fa61-1012-4afc-9928-67bd7467335e}, !- Handle
  Deer Park Arpt December .4% Condns DB=>MCWB 1, !- Name
  9.1,                                    !- Maximum Dry-Bulb Temperature {C}
  6.4,                                    !- Daily Dry-Bulb Temperature Range {deltaC}
  6.9,                                    !- Humidity Indicating Conditions at Maximum Dry-Bulb
  93508,                                  !- Barometric Pressure {Pa}
  3.2,                                    !- Wind Speed {m/s}
  210,                                    !- Wind Direction {deg}
  0,                                      !- Sky Clearness
  0,                                      !- Rain Indicator
  0,                                      !- Snow Indicator
  21,                                     !- Day of Month
  12,                                     !- Month
  SummerDesignDay,                        !- Day Type
  0,                                      !- Daylight Saving Time Indicator
  Wetbulb,                                !- Humidity Indicating Type
  ,                                       !- Humidity Indicating Day Schedule Name
  DefaultMultipliers,                     !- Dry-Bulb Temperature Range Modifier Type
  ,                                       !- Dry-Bulb Temperature Range Modifier Schedule Name
  ASHRAETau,                              !- Solar Model Indicator
  ,                                       !- Beam Solar Day Schedule Name
  ,                                       !- Diffuse Solar Day Schedule Name
  0.275,                                  !- ASHRAE Taub {dimensionless}
  2.583;                                  !- ASHRAE Taud {dimensionless}

OS:SizingPeriod:DesignDay,
  {a2880f39-1c4e-410f-849d-6155619fa7c0}, !- Handle
  Deer Park Arpt December .4% Condns WB=>MCDB 1, !- Name
  8.3,                                    !- Maximum Dry-Bulb Temperature {C}
  6.4,                                    !- Daily Dry-Bulb Temperature Range {deltaC}
  7.4,                                    !- Humidity Indicating Conditions at Maximum Dry-Bulb
  93508,                                  !- Barometric Pressure {Pa}
  3.2,                                    !- Wind Speed {m/s}
  210,                                    !- Wind Direction {deg}
  0,                                      !- Sky Clearness
  0,                                      !- Rain Indicator
  0,                                      !- Snow Indicator
  21,                                     !- Day of Month
  12,                                     !- Month
  SummerDesignDay,                        !- Day Type
  0,                                      !- Daylight Saving Time Indicator
  Wetbulb,                                !- Humidity Indicating Type
  ,                                       !- Humidity Indicating Day Schedule Name
  DefaultMultipliers,                     !- Dry-Bulb Temperature Range Modifier Type
  ,                                       !- Dry-Bulb Temperature Range Modifier Schedule Name
  ASHRAETau,                              !- Solar Model Indicator
  ,                                       !- Beam Solar Day Schedule Name
  ,                                       !- Diffuse Solar Day Schedule Name
  0.275,                                  !- ASHRAE Taub {dimensionless}
  2.583;                                  !- ASHRAE Taud {dimensionless}

OS:SizingPeriod:DesignDay,
  {3f4af559-ee79-43e4-a0c9-a4dc915338ac}, !- Handle
  Deer Park Arpt February .4% Condns DB=>MCWB 1, !- Name
  10.9,                                   !- Maximum Dry-Bulb Temperature {C}
  8.9,                                    !- Daily Dry-Bulb Temperature Range {deltaC}
  5.3,                                    !- Humidity Indicating Conditions at Maximum Dry-Bulb
  93508,                                  !- Barometric Pressure {Pa}
  3.2,                                    !- Wind Speed {m/s}
  210,                                    !- Wind Direction {deg}
  0,                                      !- Sky Clearness
  0,                                      !- Rain Indicator
  0,                                      !- Snow Indicator
  21,                                     !- Day of Month
  2,                                      !- Month
  SummerDesignDay,                        !- Day Type
  0,                                      !- Daylight Saving Time Indicator
  Wetbulb,                                !- Humidity Indicating Type
  ,                                       !- Humidity Indicating Day Schedule Name
  DefaultMultipliers,                     !- Dry-Bulb Temperature Range Modifier Type
  ,                                       !- Dry-Bulb Temperature Range Modifier Schedule Name
  ASHRAETau,                              !- Solar Model Indicator
  ,                                       !- Beam Solar Day Schedule Name
  ,                                       !- Diffuse Solar Day Schedule Name
  0.276,                                  !- ASHRAE Taub {dimensionless}
  2.569;                                  !- ASHRAE Taud {dimensionless}

OS:SizingPeriod:DesignDay,
  {d9e3c143-acf9-4a86-a20d-10d79dfe2565}, !- Handle
  Deer Park Arpt February .4% Condns WB=>MCDB 1, !- Name
  8.4,                                    !- Maximum Dry-Bulb Temperature {C}
  8.9,                                    !- Daily Dry-Bulb Temperature Range {deltaC}
  6.5,                                    !- Humidity Indicating Conditions at Maximum Dry-Bulb
  93508,                                  !- Barometric Pressure {Pa}
  3.2,                                    !- Wind Speed {m/s}
  210,                                    !- Wind Direction {deg}
  0,                                      !- Sky Clearness
  0,                                      !- Rain Indicator
  0,                                      !- Snow Indicator
  21,                                     !- Day of Month
  2,                                      !- Month
  SummerDesignDay,                        !- Day Type
  0,                                      !- Daylight Saving Time Indicator
  Wetbulb,                                !- Humidity Indicating Type
  ,                                       !- Humidity Indicating Day Schedule Name
  DefaultMultipliers,                     !- Dry-Bulb Temperature Range Modifier Type
  ,                                       !- Dry-Bulb Temperature Range Modifier Schedule Name
  ASHRAETau,                              !- Solar Model Indicator
  ,                                       !- Beam Solar Day Schedule Name
  ,                                       !- Diffuse Solar Day Schedule Name
  0.276,                                  !- ASHRAE Taub {dimensionless}
  2.569;                                  !- ASHRAE Taud {dimensionless}

OS:SizingPeriod:DesignDay,
  {1fb59d81-ebb1-4cea-9e02-8d695a655d62}, !- Handle
  Deer Park Arpt January .4% Condns DB=>MCWB 1, !- Name
  7.8,                                    !- Maximum Dry-Bulb Temperature {C}
  6.1,                                    !- Daily Dry-Bulb Temperature Range {deltaC}
  5.7,                                    !- Humidity Indicating Conditions at Maximum Dry-Bulb
  93508,                                  !- Barometric Pressure {Pa}
  3.2,                                    !- Wind Speed {m/s}
  210,                                    !- Wind Direction {deg}