
OS:Version,
  {439f3864-9d5d-49b0-8a25-f06f98430508}, !- Handle
  2.8.1;                                  !- Version Identifier

OS:Facility,
  {6b1f858f-5708-4ba6-af87-a45d563416e5}; !- Handle

OS:Site,
  {64edd800-d176-4e2b-8fce-7e6fa1ea6d05}, !- Handle
  CA_VAN-NUYS-AP_-_USA,                   !- Name
  34.21,                                  !- Latitude {deg}
  -118.49,                                !- Longitude {deg}
  -8,                                     !- Time Zone {hr}
  243,                                    !- Elevation {m}
  City;                                   !- Terrain

OS:SimulationControl,
  {cf23f08c-ce33-4c51-9255-bee6b30198cc}, !- Handle
  ,                                       !- Do Zone Sizing Calculation
  ,                                       !- Do System Sizing Calculation
  ,                                       !- Do Plant Sizing Calculation
  No,                                     !- Run Simulation for Sizing Periods
  Yes;                                    !- Run Simulation for Weather File Run Periods

OS:Sizing:Parameters,
  {88638040-18e9-4c16-97b2-8949ff55a392}, !- Handle
  1.25,                                   !- Heating Sizing Factor
  1.15;                                   !- Cooling Sizing Factor

OS:Timestep,
  {ac92b590-2243-4ab1-b1ce-a1c941b9d898}, !- Handle
  4;                                      !- Number of Timesteps per Hour

OS:ShadowCalculation,
  {7ad781ac-9b53-4780-95fa-3b84d52397b5}, !- Handle
  20,                                     !- Calculation Frequency
  15000;                                  !- Maximum Figures in Shadow Overlap Calculations

OS:HeatBalanceAlgorithm,
  {01a3c4f5-3086-4e17-8356-e77bae6131bd}, !- Handle
  ConductionTransferFunction,             !- Algorithm
  200;                                    !- Surface Temperature Upper Limit {C}

OS:RunPeriod,
  {3d4c6996-ad6c-4403-9c04-7f7c8aadc3f5}, !- Handle
  Run Period 1,                           !- Name
  1,                                      !- Begin Month
  1,                                      !- Begin Day of Month
  12,                                     !- End Month
  31,                                     !- End Day of Month
  ,                                       !- Use Weather File Holidays and Special Days
  ,                                       !- Use Weather File Daylight Saving Period
  ,                                       !- Apply Weekend Holiday Rule
  ,                                       !- Use Weather File Rain Indicators
  ,                                       !- Use Weather File Snow Indicators
  ;                                       !- Number of Times Runperiod to be Repeated

OS:LifeCycleCost:Parameters,
  {77460f44-208a-4c14-bdb6-b08edd273f5f}, !- Handle
  ,                                       !- Analysis Type
  ,                                       !- Discounting Convention
  ,                                       !- Inflation Approach
  ,                                       !- Real Discount Rate
  ,                                       !- Nominal Discount Rate
  ,                                       !- Inflation
  ,                                       !- Base Date Month
  ,                                       !- Base Date Year
  ,                                       !- Service Date Month
  ,                                       !- Service Date Year
  ;                                       !- Length of Study Period in Years

OS:WeatherFile,
  {36fcddda-7f41-42e1-afaa-cbb95ddc5593}, !- Handle
  CA_VAN-NUYS-AP,                         !- City
  -,                                      !- State Province Region
  USA,                                    !- Country
  Custom-722886,                          !- Data Source
  722886,                                 !- WMO Number
  34.21,                                  !- Latitude {deg}
  -118.49,                                !- Longitude {deg}
  -8,                                     !- Time Zone {hr}
  243,                                    !- Elevation {m}
  file:////weather/CA_VAN-NUYS-AP_722886S_12.epw, !- Url
  288AE598;                               !- Checksum

OS:RunPeriodControl:DaylightSavingTime,
  {211ab3c5-2a18-4249-ac5c-22287d8848fa}, !- Handle
  2nd Sunday in March,                    !- Start Date
  1st Sunday in November;                 !- End Date

OS:YearDescription,
  {d2a92fc5-92d3-4d3f-bfea-aba63e338b38}, !- Handle
  ,                                       !- Calendar Year
  Thursday;                               !- Day of Week for Start Day

OS:Site:WaterMainsTemperature,
  {a22b30c9-1112-49d8-b01f-63b2f5b1ddef}, !- Handle
  Correlation,                            !- Calculation Method
  ,                                       !- Temperature Schedule Name
  19.025,                                 !- Annual Average Outdoor Air Temperature {C}
  16;                                     !- Maximum Difference In Monthly Average Outdoor Air Temperatures {deltaC}

OS:SizingPeriod:DesignDay,
  {940b9e4e-f227-4cd3-a7ab-3ad4a1a98653}, !- Handle
  CA_VAN-NUYS-AP Ann Clg .4% Condns DB=>MWB 1, !- Name
  37.7,                                   !- Maximum Dry-Bulb Temperature {C}
  14,                                     !- Daily Dry-Bulb Temperature Range {deltaC}
  19.8,                                   !- Humidity Indicating Conditions at Maximum Dry-Bulb
  98440,                                  !- Barometric Pressure {Pa}
  3.4,                                    !- Wind Speed {m/s}
  130,                                    !- Wind Direction {deg}
  0,                                      !- Sky Clearness
  0,                                      !- Rain Indicator
  0,                                      !- Snow Indicator
  21,                                     !- Day of Month
  7,                                      !- Month
  SummerDesignDay,                        !- Day Type
  0,                                      !- Daylight Saving Time Indicator
  Wetbulb,                                !- Humidity Indicating Type
  ,                                       !- Humidity Indicating Day Schedule Name
  DefaultMultipliers,                     !- Dry-Bulb Temperature Range Modifier Type
  ,                                       !- Dry-Bulb Temperature Range Modifier Schedule Name
  ASHRAETau,                              !- Solar Model Indicator
  ,                                       !- Beam Solar Day Schedule Name
  ,                                       !- Diffuse Solar Day Schedule Name
  0.347,                                  !- ASHRAE Taub {dimensionless}
  2.416;                                  !- ASHRAE Taud {dimensionless}

OS:SizingPeriod:DesignDay,
  {8d15639e-e42b-4b21-a2c5-76eb46f58888}, !- Handle
  CA_VAN-NUYS-AP Ann Clg .4% Condns WB=>MDB 1, !- Name
  33.7,                                   !- Maximum Dry-Bulb Temperature {C}
  14,                                     !- Daily Dry-Bulb Temperature Range {deltaC}
  22.3,                                   !- Humidity Indicating Conditions at Maximum Dry-Bulb
  98440,                                  !- Barometric Pressure {Pa}
  3.4,                                    !- Wind Speed {m/s}
  130,                                    !- Wind Direction {deg}
  0,                                      !- Sky Clearness
  0,                                      !- Rain Indicator
  0,                                      !- Snow Indicator
  21,                                     !- Day of Month
  7,                                      !- Month
  SummerDesignDay,                        !- Day Type
  0,                                      !- Daylight Saving Time Indicator
  Wetbulb,                                !- Humidity Indicating Type
  ,                                       !- Humidity Indicating Day Schedule Name
  DefaultMultipliers,                     !- Dry-Bulb Temperature Range Modifier Type
  ,                                       !- Dry-Bulb Temperature Range Modifier Schedule Name
  ASHRAETau,                              !- Solar Model Indicator
  ,                                       !- Beam Solar Day Schedule Name
  ,                                       !- Diffuse Solar Day Schedule Name
  0.347,                                  !- ASHRAE Taub {dimensionless}
  2.416;                                  !- ASHRAE Taud {dimensionless}

OS:SizingPeriod:DesignDay,
  {3b828658-52a1-426a-b2f9-62508a9cefe6}, !- Handle
  CA_VAN-NUYS-AP Ann Clg 1% Condns DB=>MWB 1, !- Name
  36.2,                                   !- Maximum Dry-Bulb Temperature {C}
  14,                                     !- Daily Dry-Bulb Temperature Range {deltaC}
  19.2,                                   !- Humidity Indicating Conditions at Maximum Dry-Bulb
  98440,                                  !- Barometric Pressure {Pa}
  3.4,                                    !- Wind Speed {m/s}
  130,                                    !- Wind Direction {deg}
  0,                                      !- Sky Clearness
  0,                                      !- Rain Indicator
  0,                                      !- Snow Indicator
  21,                                     !- Day of Month
  7,                                      !- Month
  SummerDesignDay,                        !- Day Type
  0,                                      !- Daylight Saving Time Indicator
  Wetbulb,                                !- Humidity Indicating Type
  ,                                       !- Humidity Indicating Day Schedule Name
  DefaultMultipliers,                     !- Dry-Bulb Temperature Range Modifier Type
  ,                                       !- Dry-Bulb Temperature Range Modifier Schedule Name
  ASHRAETau,                              !- Solar Model Indicator
  ,                                       !- Beam Solar Day Schedule Name
  ,                                       !- Diffuse Solar Day Schedule Name
  0.347,                                  !- ASHRAE Taub {dimensionless}
  2.416;                                  !- ASHRAE Taud {dimensionless}

OS:SizingPeriod:DesignDay,
  {227100b3-bdba-4c93-b53f-6154bc7238b0}, !- Handle
  CA_VAN-NUYS-AP Ann Clg 2% Condns DP=>MDB 1, !- Name
  24.1,                                   !- Maximum Dry-Bulb Temperature {C}
  14,                                     !- Daily Dry-Bulb Temperature Range {deltaC}
  17.1,                                   !- Humidity Indicating Conditions at Maximum Dry-Bulb
  98440,                                  !- Barometric Pressure {Pa}
  3.4,                                    !- Wind Speed {m/s}
  130,                                    !- Wind Direction {deg}
  0,                                      !- Sky Clearness
  0,                                      !- Rain Indicator
  0,                                      !- Snow Indicator
  21,                                     !- Day of Month
  7,                                      !- Month
  SummerDesignDay,                        !- Day Type
  0,                                      !- Daylight Saving Time Indicator
  Dewpoint,                               !- Humidity Indicating Type
  ,                                       !- Humidity Indicating Day Schedule Name
  DefaultMultipliers,                     !- Dry-Bulb Temperature Range Modifier Type
  ,                                       !- Dry-Bulb Temperature Range Modifier Schedule Name
  ASHRAETau,                              !- Solar Model Indicator
  ,                                       !- Beam Solar Day Schedule Name
  ,                                       !- Diffuse Solar Day Schedule Name
  0.347,                                  !- ASHRAE Taub {dimensionless}
  2.416;                                  !- ASHRAE Taud {dimensionless}

OS:SizingPeriod:DesignDay,
  {281b0732-b4ba-45e4-a0f6-381291add374}, !- Handle
  CA_VAN-NUYS-AP Ann Htg 99% Condns DB 1, !- Name
  5.1,                                    !- Maximum Dry-Bulb Temperature {C}
  0,                                      !- Daily Dry-Bulb Temperature Range {deltaC}
  5.1,                                    !- Humidity Indicating Conditions at Maximum Dry-Bulb
  98440,                                  !- Barometric Pressure {Pa}
  0.8,                                    !- Wind Speed {m/s}
  350,                                    !- Wind Direction {deg}
  0,                                      !- Sky Clearness
  0,                                      !- Rain Indicator
  0,                                      !- Snow Indicator
  21,                                     !- Day of Month
  12,                                     !- Month
  WinterDesignDay,                        !- Day Type
  0,                                      !- Daylight Saving Time Indicator
  Wetbulb,                                !- Humidity Indicating Type
  ,                                       !- Humidity Indicating Day Schedule Name
  DefaultMultipliers,                     !- Dry-Bulb Temperature Range Modifier Type
  ,                                       !- Dry-Bulb Temperature Range Modifier Schedule Name
  ASHRAEClearSky;                         !- Solar Model Indicator

OS:SizingPeriod:DesignDay,
  {3dc0dd36-1739-4ac8-9e7f-a952437bbcd3}, !- Handle
  CA_VAN-NUYS-AP Ann Htg 99.6% Condns DB 1, !- Name
  3.7,                                    !- Maximum Dry-Bulb Temperature {C}
  0,                                      !- Daily Dry-Bulb Temperature Range {deltaC}
  3.7,                                    !- Humidity Indicating Conditions at Maximum Dry-Bulb
  98440,                                  !- Barometric Pressure {Pa}
  0.8,                                    !- Wind Speed {m/s}
  350,                                    !- Wind Direction {deg}
  0,                                      !- Sky Clearness
  0,                                      !- Rain Indicator
  0,                                      !- Snow Indicator
  21,                                     !- Day of Month
  12,                                     !- Month
  WinterDesignDay,                        !- Day Type
  0,                                      !- Daylight Saving Time Indicator
  Wetbulb,                                !- Humidity Indicating Type
  ,                                       !- Humidity Indicating Day Schedule Name
  DefaultMultipliers,                     !- Dry-Bulb Temperature Range Modifier Type
  ,                                       !- Dry-Bulb Temperature Range Modifier Schedule Name
  ASHRAEClearSky;                         !- Solar Model Indicator

OS:SizingPeriod:DesignDay,
  {dda7bc53-9a5f-406f-ade4-574aa7d5c6de}, !- Handle
  CA_VAN-NUYS-AP Ann Htg Wind 99% Condns WS=>MCDB 1, !- Name
  15.3,                                   !- Maximum Dry-Bulb Temperature {C}
  0,                                      !- Daily Dry-Bulb Temperature Range {deltaC}
  15.3,                                   !- Humidity Indicating Conditions at Maximum Dry-Bulb
  98440,                                  !- Barometric Pressure {Pa}
  10.7,                                   !- Wind Speed {m/s}
  350,                                    !- Wind Direction {deg}
  0,                                      !- Sky Clearness
  0,                                      !- Rain Indicator
  0,                                      !- Snow Indicator
  21,                                     !- Day of Month
  12,                                     !- Month
  WinterDesignDay,                        !- Day Type
  0,                                      !- Daylight Saving Time Indicator
  Wetbulb,                                !- Humidity Indicating Type
  ,                                       !- Humidity Indicating Day Schedule Name
  DefaultMultipliers,                     !- Dry-Bulb Temperature Range Modifier Type
  ,                                       !- Dry-Bulb Temperature Range Modifier Schedule Name
  ASHRAEClearSky;                         !- Solar Model Indicator

OS:SizingPeriod:DesignDay,
  {5077d863-ed37-4a7e-a05c-29865728a3d8}, !- Handle
  Van Nuys April .4% Condns DB=>MCWB 1,   !- Name
  35.3,                                   !- Maximum Dry-Bulb Temperature {C}
  11.5,                                   !- Daily Dry-Bulb Temperature Range {deltaC}
  15,                                     !- Humidity Indicating Conditions at Maximum Dry-Bulb
  98428,                                  !- Barometric Pressure {Pa}
  3.4,                                    !- Wind Speed {m/s}
  130,                                    !- Wind Direction {deg}
  0,                                      !- Sky Clearness
  0,                                      !- Rain Indicator
  0,                                      !- Snow Indicator
  21,                                     !- Day of Month
  4,                                      !- Month
  SummerDesignDay,                        !- Day Type
  0,                                      !- Daylight Saving Time Indicator
  Wetbulb,                                !- Humidity Indicating Type
  ,                                       !- Humidity Indicating Day Schedule Name
  DefaultMultipliers,                     !- Dry-Bulb Temperature Range Modifier Type
  ,                                       !- Dry-Bulb Temperature Range Modifier Schedule Name
  ASHRAETau,                              !- Solar Model Indicator
  ,                                       !- Beam Solar Day Schedule Name
  ,                                       !- Diffuse Solar Day Schedule Name
  0.321,                                  !- ASHRAE Taub {dimensionless}
  2.52;                                   !- ASHRAE Taud {dimensionless}

OS:SizingPeriod:DesignDay,
  {0c7c293b-c3f7-4254-bfdd-0170c04e0006}, !- Handle
  Van Nuys August .4% Condns DB=>MCWB 1,  !- Name
  39.9,                                   !- Maximum Dry-Bulb Temperature {C}
  14.6,                                   !- Daily Dry-Bulb Temperature Range {deltaC}
  20.4,                                   !- Humidity Indicating Conditions at Maximum Dry-Bulb
  98428,                                  !- Barometric Pressure {Pa}
  3.4,                                    !- Wind Speed {m/s}
  130,                                    !- Wind Direction {deg}
  0,                                      !- Sky Clearness
  0,                                      !- Rain Indicator
  0,                                      !- Snow Indicator
  21,                                     !- Day of Month
  8,                                      !- Month
  SummerDesignDay,                        !- Day Type
  0,                                      !- Daylight Saving Time Indicator
  Wetbulb,                                !- Humidity Indicating Type
  ,                                       !- Humidity Indicating Day Schedule Name
  DefaultMultipliers,                     !- Dry-Bulb Temperature Range Modifier Type
  ,                                       !- Dry-Bulb Temperature Range Modifier Schedule Name
  ASHRAETau,                              !- Solar Model Indicator
  ,                                       !- Beam Solar Day Schedule Name
  ,                                       !- Diffuse Solar Day Schedule Name
  0.355,                                  !- ASHRAE Taub {dimensionless}
  2.432;                                  !- ASHRAE Taud {dimensionless}

OS:SizingPeriod:DesignDay,
  {ec1a4ab5-7460-487d-90d1-a94743eedc69}, !- Handle
  Van Nuys July .4% Condns DB=>MCWB 1,    !- Name
  38,                                     !- Maximum Dry-Bulb Temperature {C}
  14,                                     !- Daily Dry-Bulb Temperature Range {deltaC}
  21.6,                                   !- Humidity Indicating Conditions at Maximum Dry-Bulb
  98428,                                  !- Barometric Pressure {Pa}
  3.4,                                    !- Wind Speed {m/s}
  130,                                    !- Wind Direction {deg}
  0,                                      !- Sky Clearness
  0,                                      !- Rain Indicator
  0,                                      !- Snow Indicator
  21,                                     !- Day of Month
  7,                                      !- Month
  SummerDesignDay,                        !- Day Type
  0,                                      !- Daylight Saving Time Indicator
  Wetbulb,                                !- Humidity Indicating Type
  ,                                       !- Humidity Indicating Day Schedule Name
  DefaultMultipliers,                     !- Dry-Bulb Temperature Range Modifier Type
  ,                                       !- Dry-Bulb Temperature Range Modifier Schedule Name
  ASHRAETau,                              !- Solar Model Indicator
  ,                                       !- Beam Solar Day Schedule Name
  ,                                       !- Diffuse Solar Day Schedule Name
  0.347,                                  !- ASHRAE Taub {dimensionless}
  2.416;                                  !- ASHRAE Taud {dimensionless}

OS:SizingPeriod:DesignDay,
  {978f91f1-ccaa-41f6-9461-481b10c51c7b}, !- Handle
  Van Nuys June .4% Condns DB=>MCWB 1,    !- Name
  39,                                     !- Maximum Dry-Bulb Temperature {C}
  12.3,                                   !- Daily Dry-Bulb Temperature Range {deltaC}
  17.9,                                   !- Humidity Indicating Conditions at Maximum Dry-Bulb
  98428,                                  !- Barometric Pressure {Pa}
  3.4,                                    !- Wind Speed {m/s}
  130,                                    !- Wind Direction {deg}
  0,                                      !- Sky Clearness
  0,                                      !- Rain Indicator
  0,                                      !- Snow Indicator
  21,                                     !- Day of Month
  6,                                      !- Month
  SummerDesignDay,                        !- Day Type
  0,                                      !- Daylight Saving Time Indicator
  Wetbulb,                                !- Humidity Indicating Type
  ,                                       !- Humidity Indicating Day Schedule Name
  DefaultMultipliers,                     !- Dry-Bulb Temperature Range Modifier Type
  ,                                       !- Dry-Bulb Temperature Range Modifier Schedule Name
  ASHRAETau,                              !- Solar Model Indicator
  ,                                       !- Beam Solar Day Schedule Name
  ,                                       !- Diffuse Solar Day Schedule Name
  0.332,                                  !- ASHRAE Taub {dimensionless}
  2.429;                                  !- ASHRAE Taud {dimensionless}

OS:SizingPeriod:DesignDay,
  {63f54885-0feb-437b-b61d-8263b1679645}, !- Handle
  Van Nuys May .4% Condns DB=>MCWB 1,     !- Name
  36.2,                                   !- Maximum Dry-Bulb Temperature {C}
  11.9,                                   !- Daily Dry-Bulb Temperature Range {deltaC}
  17.4,                                   !- Humidity Indicating Conditions at Maximum Dry-Bulb
  98428,                                  !- Barometric Pressure {Pa}
  3.4,                                    !- Wind Speed {m/s}
  130,                                    !- Wind Direction {deg}
  0,                                      !- Sky Clearness
  0,                                      !- Rain Indicator
  0,                                      !- Snow Indicator
  21,                                     !- Day of Month
  5,                                      !- Month
  SummerDesignDay,                        !- Day Type
  0,                                      !- Daylight Saving Time Indicator
  Wetbulb,                                !- Humidity Indicating Type
  ,                                       !- Humidity Indicating Day Schedule Name
  DefaultMultipliers,                     !- Dry-Bulb Temperature Range Modifier Type
  ,                                       !- Dry-Bulb Temperature Range Modifier Schedule Name
  ASHRAETau,                              !- Solar Model Indicator
  ,                                       !- Beam Solar Day Schedule Name
  ,                                       !- Diffuse Solar Day Schedule Name
  0.334,                                  !- ASHRAE Taub {dimensionless}
  2.436;                                  !- ASHRAE Taud {dimensionless}

OS:SizingPeriod:DesignDay,
  {d8e596a2-33db-4695-a971-f9b0407f6641}, !- Handle
  Van Nuys October .4% Condns DB=>MCWB 1, !- Name
  36.1,                                   !- Maximum Dry-Bulb Temperature {C}
  12.7,                                   !- Daily Dry-Bulb Temperature Range {deltaC}
  17.2,                                   !- Humidity Indicating Conditions at Maximum Dry-Bulb
  98428,                                  !- Barometric Pressure {Pa}
  3.4,                                    !- Wind Speed {m/s}
  130,                                    !- Wind Direction {deg}
  0,                                      !- Sky Clearness
  0,                                      !- Rain Indicator
  0,                                      !- Snow Indicator
  21,                                     !- Day of Month
  10,                                     !- Month
  SummerDesignDay,                        !- Day Type
  0,                                      !- Daylight Saving Time Indicator
  Wetbulb,                                !- Humidity Indicating Type
  ,                                       !- Humidity Indicating Day Schedule Name
  DefaultMultipliers,                     !- Dry-Bulb Temperature Range Modifier Type
  ,                                       !- Dry-Bulb Temperature Range Modifier Schedule Name
  ASHRAETau,                              !- Solar Model Indicator
  ,                                       !- Beam Solar Day Schedule Name
  ,                                       !- Diffuse Solar Day Schedule Name
  0.357,                                  !- ASHRAE Taub {dimensionless}
  2.485;                                  !- ASHRAE Taud {dimensionless}

OS:SizingPeriod:DesignDay,
  {867759db-d128-471f-a5be-264e2fe8b98f}, !- Handle
  Van Nuys September .4% Condns DB=>MCWB 1, !- Name
  41,                                     !- Maximum Dry-Bulb Temperature {C}
  13.9,                                   !- Daily Dry-Bulb Temperature Range {deltaC}
  21.6,                                   !- Humidity Indicating Conditions at Maximum Dry-Bulb
  98428,                                  !- Barometric Pressure {Pa}
  3.4,                                    !- Wind Speed {m/s}
  130,                                    !- Wind Direction {deg}
  0,                                      !- Sky Clearness
  0,                                      !- Rain Indicator
  0,                                      !- Snow Indicator
  21,                                     !- Day of Month
  9,                                      !- Month
  SummerDesignDay,                        !- Day Type
  0,                                      !- Daylight Saving Time Indicator
  Wetbulb,                                !- Humidity Indicating Type
  ,                                       !- Humidity Indicating Day Schedule Name
  DefaultMultipliers,                     !- Dry-Bulb Temperature Range Modifier Type
  ,                                       !- Dry-Bulb Temperature Range Modifier Schedule Name
  ASHRAETau,                              !- Solar Model Indicator
  ,                                       !- Beam Solar Day Schedule Name
  ,                                       !- Diffuse Solar Day Schedule Name
  0.359,                                  !- ASHRAE Taub {dimensionless}
  2.47;                                   !- ASHRAE Taud {dimensionless}

OS:ClimateZones,
  {8018d320-36c5-41d9-9b99-02d76705f602}, !- Handle
  ,                                       !- Active Institution
  ,                                       !- Active Year
  CEC,                                    !- Climate Zone Institution Name 1
  California Climate Zone Descriptions,   !- Climate Zone Document Name 1
  1995,                                   !- Climate Zone Document Year 1
  9;                                      !- Climate Zone Value 1

OS:Building,
  {a911172f-f717-4fe5-b6a3-3b5f9060041a}, !- Handle
  DEER 1996|MFm,                          !- Name
  ,                                       !- Building Sector Type
  270,                                    !- North Axis {deg}
  ,                                       !- Nominal Floor to Floor Height {m}
  ,                                       !- Space Type Name
  {0b07b722-566d-4adb-a5ee-218274806f22}, !- Default Construction Set Name
  {7bb37308-9b85-49ff-b7db-38aabe573eba}, !- Default Schedule Set Name
  ,                                       !- Standards Number of Stories
  ,                                       !- Standards Number of Above Ground Stories
  ,                                       !- Standards Template
  MFm;                                    !- Standards Building Type

OS:SpaceType,
  {fbbf7455-a0e2-4aaa-8552-58c2e7986255}, !- Handle
  MFm ResPublicArea - DEER 1996,          !- Name
  ,                                       !- Default Construction Set Name
  {e87be843-3331-4e95-b50d-eb2fc62d25b2}, !- Default Schedule Set Name
  ,                                       !- Group Rendering Name
  {c413853d-60e8-4134-a34c-fdec4f39bc49}, !- Design Specification Outdoor Air Object Name
  ,                                       !- Standards Template
  MFm,                                    !- Standards Building Type
  ResPublicArea;                          !- Standards Space Type

OS:SpaceType,