
OS:Version,
  {a43d26a8-0a52-4b11-921c-9f4a66f88c2c}, !- Handle
  2.8.1;                                  !- Version Identifier

OS:Facility,
  {bb0dfd1e-18ea-459e-8e30-7e3900f3b117}; !- Handle

OS:Site,
  {f485ff7a-9460-4117-91a3-6c30b913acda}, !- Handle
  Truth Or Consequenc_NM_USA,             !- Name
  33.24,                                  !- Latitude {deg}
  -107.27,                                !- Longitude {deg}
  -7,                                     !- Time Zone {hr}
  1481,                                   !- Elevation {m}
  City;                                   !- Terrain

OS:SimulationControl,
  {4375b58d-d13b-44de-ad88-aa8e0989dcf4}, !- Handle
  ,                                       !- Do Zone Sizing Calculation
  ,                                       !- Do System Sizing Calculation
  ,                                       !- Do Plant Sizing Calculation
  No,                                     !- Run Simulation for Sizing Periods
  Yes;                                    !- Run Simulation for Weather File Run Periods

OS:Sizing:Parameters,
  {69d1b011-db52-49d4-9217-d0b41d0305b7}, !- Handle
  1.25,                                   !- Heating Sizing Factor
  1.15;                                   !- Cooling Sizing Factor

OS:Timestep,
  {db996ba4-969b-48d3-ae5d-d61c0b1959cb}, !- Handle
  4;                                      !- Number of Timesteps per Hour

OS:ShadowCalculation,
  {8705aa3b-125b-445a-94e4-96d44a1dc763}, !- Handle
  20,                                     !- Calculation Frequency
  15000;                                  !- Maximum Figures in Shadow Overlap Calculations

OS:HeatBalanceAlgorithm,
  {3416237b-5e99-4035-b976-153a9cd9343d}, !- Handle
  ConductionTransferFunction,             !- Algorithm
  200;                                    !- Surface Temperature Upper Limit {C}

OS:RunPeriod,
  {bc00055b-9d25-4fb0-8727-73b22033c929}, !- Handle
  Run Period 1,                           !- Name
  1,                                      !- Begin Month
  1,                                      !- Begin Day of Month
  12,                                     !- End Month
  30,                                     !- End Day of Month
  ,                                       !- Use Weather File Holidays and Special Days
  ,                                       !- Use Weather File Daylight Saving Period
  ,                                       !- Apply Weekend Holiday Rule
  ,                                       !- Use Weather File Rain Indicators
  ,                                       !- Use Weather File Snow Indicators
  ;                                       !- Number of Times Runperiod to be Repeated

OS:LifeCycleCost:Parameters,
  {e177500d-71c4-4a04-8c2a-c4229185479c}, !- Handle
  ,                                       !- Analysis Type
  ,                                       !- Discounting Convention
  ,                                       !- Inflation Approach
  ,                                       !- Real Discount Rate
  ,                                       !- Nominal Discount Rate
  ,                                       !- Inflation
  ,                                       !- Base Date Month
  ,                                       !- Base Date Year
  ,                                       !- Service Date Month
  ,                                       !- Service Date Year
  ;                                       !- Length of Study Period in Years

OS:WeatherFile,
  {6cc07049-ed75-4cb8-87b9-27067a69b057}, !- Handle
  Truth Or Consequenc,                    !- City
  NM,                                     !- State Province Region
  USA,                                    !- Country
  customized weather file,                !- Data Source
  722710,                                 !- WMO Number
  33.24,                                  !- Latitude {deg}
  -107.27,                                !- Longitude {deg}
  -7,                                     !- Time Zone {hr}
  1481,                                   !- Elevation {m}
  file:////weather/USA_NM_Truth.Or.Consequenc.722710_2016.epw, !- Url
  226BE93E;                               !- Checksum

OS:RunPeriodControl:DaylightSavingTime,
  {25b746c2-bf76-4bdb-bd38-21d0a933f383}, !- Handle
  2nd Sunday in March,                    !- Start Date
  1st Sunday in November;                 !- End Date

OS:YearDescription,
  {a492b4ad-d2ec-4b95-ae6e-121b470ca6eb}, !- Handle
  2016,                                   !- Calendar Year
  ,                                       !- Day of Week for Start Day
  ;                                       !- Is Leap Year

OS:Site:WaterMainsTemperature,
  {1889d3e9-6263-489b-81a2-5098322c837b}, !- Handle
  Correlation,                            !- Calculation Method
  ,                                       !- Temperature Schedule Name
  17.1416666666667,                       !- Annual Average Outdoor Air Temperature {C}
  24.28;                                  !- Maximum Difference In Monthly Average Outdoor Air Temperatures {deltaC}

OS:SizingPeriod:DesignDay,
  {a4a2b938-7ff9-41d2-ba9b-d561f9089083}, !- Handle
  Truth Or Consequenc Ann Clg .4% Condns DB=>MWB 1, !- Name
  36.9,                                   !- Maximum Dry-Bulb Temperature {C}
  13.6,                                   !- Daily Dry-Bulb Temperature Range {deltaC}
  16.4,                                   !- Humidity Indicating Conditions at Maximum Dry-Bulb
  84753,                                  !- Barometric Pressure {Pa}
  4.7,                                    !- Wind Speed {m/s}
  170,                                    !- Wind Direction {deg}
  0,                                      !- Sky Clearness
  0,                                      !- Rain Indicator
  0,                                      !- Snow Indicator
  21,                                     !- Day of Month
  7,                                      !- Month
  SummerDesignDay,                        !- Day Type
  0,                                      !- Daylight Saving Time Indicator
  Wetbulb,                                !- Humidity Indicating Type
  ,                                       !- Humidity Indicating Day Schedule Name
  DefaultMultipliers,                     !- Dry-Bulb Temperature Range Modifier Type
  ,                                       !- Dry-Bulb Temperature Range Modifier Schedule Name
  ASHRAETau,                              !- Solar Model Indicator
  ,                                       !- Beam Solar Day Schedule Name
  ,                                       !- Diffuse Solar Day Schedule Name
  0.321,                                  !- ASHRAE Taub {dimensionless}
  2.441;                                  !- ASHRAE Taud {dimensionless}

OS:SizingPeriod:DesignDay,
  {d04703d2-ea4d-46d2-9afd-a0f71508da81}, !- Handle
  Truth Or Consequenc Ann Clg .4% Condns WB=>MDB 1, !- Name
  28.8,                                   !- Maximum Dry-Bulb Temperature {C}
  13.6,                                   !- Daily Dry-Bulb Temperature Range {deltaC}
  19.5,                                   !- Humidity Indicating Conditions at Maximum Dry-Bulb
  84753,                                  !- Barometric Pressure {Pa}
  4.7,                                    !- Wind Speed {m/s}
  170,                                    !- Wind Direction {deg}
  0,                                      !- Sky Clearness
  0,                                      !- Rain Indicator
  0,                                      !- Snow Indicator
  21,                                     !- Day of Month
  7,                                      !- Month
  SummerDesignDay,                        !- Day Type
  0,                                      !- Daylight Saving Time Indicator
  Wetbulb,                                !- Humidity Indicating Type
  ,                                       !- Humidity Indicating Day Schedule Name
  DefaultMultipliers,                     !- Dry-Bulb Temperature Range Modifier Type
  ,                                       !- Dry-Bulb Temperature Range Modifier Schedule Name
  ASHRAETau,                              !- Solar Model Indicator
  ,                                       !- Beam Solar Day Schedule Name
  ,                                       !- Diffuse Solar Day Schedule Name
  0.321,                                  !- ASHRAE Taub {dimensionless}
  2.441;                                  !- ASHRAE Taud {dimensionless}

OS:SizingPeriod:DesignDay,
  {f3d02c3c-0521-4c5f-8815-4c6916751c05}, !- Handle
  Truth Or Consequenc Ann Clg 1% Condns DB=>MWB 1, !- Name
  35.4,                                   !- Maximum Dry-Bulb Temperature {C}
  13.6,                                   !- Daily Dry-Bulb Temperature Range {deltaC}
  16.1,                                   !- Humidity Indicating Conditions at Maximum Dry-Bulb
  84753,                                  !- Barometric Pressure {Pa}
  4.7,                                    !- Wind Speed {m/s}
  170,                                    !- Wind Direction {deg}
  0,                                      !- Sky Clearness
  0,                                      !- Rain Indicator
  0,                                      !- Snow Indicator
  21,                                     !- Day of Month
  7,                                      !- Month
  SummerDesignDay,                        !- Day Type
  0,                                      !- Daylight Saving Time Indicator
  Wetbulb,                                !- Humidity Indicating Type
  ,                                       !- Humidity Indicating Day Schedule Name
  DefaultMultipliers,                     !- Dry-Bulb Temperature Range Modifier Type
  ,                                       !- Dry-Bulb Temperature Range Modifier Schedule Name
  ASHRAETau,                              !- Solar Model Indicator
  ,                                       !- Beam Solar Day Schedule Name
  ,                                       !- Diffuse Solar Day Schedule Name
  0.321,                                  !- ASHRAE Taub {dimensionless}
  2.441;                                  !- ASHRAE Taud {dimensionless}

OS:SizingPeriod:DesignDay,
  {edaa9164-363f-4615-a6dc-fe7acfe42482}, !- Handle
  Truth Or Consequenc Ann Clg 2% Condns DP=>MDB 1, !- Name
  22,                                     !- Maximum Dry-Bulb Temperature {C}
  13.6,                                   !- Daily Dry-Bulb Temperature Range {deltaC}
  15.9,                                   !- Humidity Indicating Conditions at Maximum Dry-Bulb
  84753,                                  !- Barometric Pressure {Pa}
  4.7,                                    !- Wind Speed {m/s}
  170,                                    !- Wind Direction {deg}
  0,                                      !- Sky Clearness
  0,                                      !- Rain Indicator
  0,                                      !- Snow Indicator
  21,                                     !- Day of Month
  7,                                      !- Month
  SummerDesignDay,                        !- Day Type
  0,                                      !- Daylight Saving Time Indicator
  Dewpoint,                               !- Humidity Indicating Type
  ,                                       !- Humidity Indicating Day Schedule Name
  DefaultMultipliers,                     !- Dry-Bulb Temperature Range Modifier Type
  ,                                       !- Dry-Bulb Temperature Range Modifier Schedule Name
  ASHRAETau,                              !- Solar Model Indicator
  ,                                       !- Beam Solar Day Schedule Name
  ,                                       !- Diffuse Solar Day Schedule Name
  0.321,                                  !- ASHRAE Taub {dimensionless}
  2.441;                                  !- ASHRAE Taud {dimensionless}

OS:SizingPeriod:DesignDay,
  {556cbd2b-bc16-4073-9274-cdc1cb801a99}, !- Handle
  Truth Or Consequenc Ann Htg 99% Condns DB 1, !- Name
  -3.8,                                   !- Maximum Dry-Bulb Temperature {C}
  0,                                      !- Daily Dry-Bulb Temperature Range {deltaC}
  -3.8,                                   !- Humidity Indicating Conditions at Maximum Dry-Bulb
  84753,                                  !- Barometric Pressure {Pa}
  3.3,                                    !- Wind Speed {m/s}
  350,                                    !- Wind Direction {deg}
  0,                                      !- Sky Clearness
  0,                                      !- Rain Indicator
  0,                                      !- Snow Indicator
  21,                                     !- Day of Month
  12,                                     !- Month
  WinterDesignDay,                        !- Day Type
  0,                                      !- Daylight Saving Time Indicator
  Wetbulb,                                !- Humidity Indicating Type
  ,                                       !- Humidity Indicating Day Schedule Name
  DefaultMultipliers,                     !- Dry-Bulb Temperature Range Modifier Type
  ,                                       !- Dry-Bulb Temperature Range Modifier Schedule Name
  ASHRAEClearSky;                         !- Solar Model Indicator

OS:SizingPeriod:DesignDay,
  {661f17cd-9dbb-4e37-ba58-7f88b3baccfd}, !- Handle
  Truth Or Consequenc Ann Htg 99.6% Condns DB 1, !- Name
  -6.8,                                   !- Maximum Dry-Bulb Temperature {C}
  0,                                      !- Daily Dry-Bulb Temperature Range {deltaC}
  -6.8,                                   !- Humidity Indicating Conditions at Maximum Dry-Bulb
  84753,                                  !- Barometric Pressure {Pa}
  3.3,                                    !- Wind Speed {m/s}
  350,                                    !- Wind Direction {deg}
  0,                                      !- Sky Clearness
  0,                                      !- Rain Indicator
  0,                                      !- Snow Indicator
  21,                                     !- Day of Month
  12,                                     !- Month
  WinterDesignDay,                        !- Day Type
  0,                                      !- Daylight Saving Time Indicator
  Wetbulb,                                !- Humidity Indicating Type
  ,                                       !- Humidity Indicating Day Schedule Name
  DefaultMultipliers,                     !- Dry-Bulb Temperature Range Modifier Type
  ,                                       !- Dry-Bulb Temperature Range Modifier Schedule Name
  ASHRAEClearSky;                         !- Solar Model Indicator

OS:SizingPeriod:DesignDay,
  {b1e5ce9f-08a9-4f24-b10e-3ae6814a43ad}, !- Handle
  Truth Or Consequenc Ann Htg Wind 99% Condns WS=>MCDB 1, !- Name
  8,                                      !- Maximum Dry-Bulb Temperature {C}
  0,                                      !- Daily Dry-Bulb Temperature Range {deltaC}
  8,                                      !- Humidity Indicating Conditions at Maximum Dry-Bulb
  84753,                                  !- Barometric Pressure {Pa}
  11.1,                                   !- Wind Speed {m/s}
  350,                                    !- Wind Direction {deg}
  0,                                      !- Sky Clearness
  0,                                      !- Rain Indicator
  0,                                      !- Snow Indicator
  21,                                     !- Day of Month
  12,                                     !- Month
  WinterDesignDay,                        !- Day Type
  0,                                      !- Daylight Saving Time Indicator
  Wetbulb,                                !- Humidity Indicating Type
  ,                                       !- Humidity Indicating Day Schedule Name
  DefaultMultipliers,                     !- Dry-Bulb Temperature Range Modifier Type
  ,                                       !- Dry-Bulb Temperature Range Modifier Schedule Name
  ASHRAEClearSky;                         !- Solar Model Indicator

OS:SizingPeriod:DesignDay,
  {4252b5cc-ecfb-4303-9f9d-c2c17e27a95f}, !- Handle
  Truth Or Consequenc April .4% Condns DB=>MCWB 1, !- Name
  31,                                     !- Maximum Dry-Bulb Temperature {C}
  15.5,                                   !- Daily Dry-Bulb Temperature Range {deltaC}
  13.1,                                   !- Humidity Indicating Conditions at Maximum Dry-Bulb
  84753,                                  !- Barometric Pressure {Pa}
  4.7,                                    !- Wind Speed {m/s}
  170,                                    !- Wind Direction {deg}
  0,                                      !- Sky Clearness
  0,                                      !- Rain Indicator
  0,                                      !- Snow Indicator
  21,                                     !- Day of Month
  4,                                      !- Month
  SummerDesignDay,                        !- Day Type
  0,                                      !- Daylight Saving Time Indicator
  Wetbulb,                                !- Humidity Indicating Type
  ,                                       !- Humidity Indicating Day Schedule Name
  DefaultMultipliers,                     !- Dry-Bulb Temperature Range Modifier Type
  ,                                       !- Dry-Bulb Temperature Range Modifier Schedule Name
  ASHRAETau,                              !- Solar Model Indicator
  ,                                       !- Beam Solar Day Schedule Name
  ,                                       !- Diffuse Solar Day Schedule Name
  0.275,                                  !- ASHRAE Taub {dimensionless}
  2.546;                                  !- ASHRAE Taud {dimensionless}

OS:SizingPeriod:DesignDay,
  {65d04f99-cadc-4a9c-bdef-3efa8b1fdcd0}, !- Handle
  Truth Or Consequenc April .4% Condns WB=>MCDB 1, !- Name
  27.5,                                   !- Maximum Dry-Bulb Temperature {C}
  15.5,                                   !- Daily Dry-Bulb Temperature Range {deltaC}
  14,                                     !- Humidity Indicating Conditions at Maximum Dry-Bulb
  84753,                                  !- Barometric Pressure {Pa}
  4.7,                                    !- Wind Speed {m/s}
  170,                                    !- Wind Direction {deg}
  0,                                      !- Sky Clearness
  0,                                      !- Rain Indicator
  0,                                      !- Snow Indicator
  21,                                     !- Day of Month
  4,                                      !- Month
  SummerDesignDay,                        !- Day Type
  0,                                      !- Daylight Saving Time Indicator
  Wetbulb,                                !- Humidity Indicating Type
  ,                                       !- Humidity Indicating Day Schedule Name
  DefaultMultipliers,                     !- Dry-Bulb Temperature Range Modifier Type
  ,                                       !- Dry-Bulb Temperature Range Modifier Schedule Name
  ASHRAETau,                              !- Solar Model Indicator
  ,                                       !- Beam Solar Day Schedule Name
  ,                                       !- Diffuse Solar Day Schedule Name
  0.275,                                  !- ASHRAE Taub {dimensionless}
  2.546;                                  !- ASHRAE Taud {dimensionless}

OS:SizingPeriod:DesignDay,
  {6761a27a-08cb-44c0-bd03-5bed19809841}, !- Handle
  Truth Or Consequenc August .4% Condns DB=>MCWB 1, !- Name
  36.2,                                   !- Maximum Dry-Bulb Temperature {C}
  13,                                     !- Daily Dry-Bulb Temperature Range {deltaC}
  17.5,                                   !- Humidity Indicating Conditions at Maximum Dry-Bulb
  84753,                                  !- Barometric Pressure {Pa}
  4.7,                                    !- Wind Speed {m/s}
  170,                                    !- Wind Direction {deg}
  0,                                      !- Sky Clearness
  0,                                      !- Rain Indicator
  0,                                      !- Snow Indicator
  21,                                     !- Day of Month
  8,                                      !- Month
  SummerDesignDay,                        !- Day Type
  0,                                      !- Daylight Saving Time Indicator
  Wetbulb,                                !- Humidity Indicating Type
  ,                                       !- Humidity Indicating Day Schedule Name
  DefaultMultipliers,                     !- Dry-Bulb Temperature Range Modifier Type
  ,                                       !- Dry-Bulb Temperature Range Modifier Schedule Name
  ASHRAETau,                              !- Solar Model Indicator
  ,                                       !- Beam Solar Day Schedule Name
  ,                                       !- Diffuse Solar Day Schedule Name
  0.317,                                  !- ASHRAE Taub {dimensionless}
  2.481;                                  !- ASHRAE Taud {dimensionless}

OS:SizingPeriod:DesignDay,
  {2d800377-3e82-4d28-94f8-394dd6a6a3ac}, !- Handle
  Truth Or Consequenc August .4% Condns WB=>MCDB 1, !- Name
  28.7,                                   !- Maximum Dry-Bulb Temperature {C}
  13,                                     !- Daily Dry-Bulb Temperature Range {deltaC}
  20.1,                                   !- Humidity Indicating Conditions at Maximum Dry-Bulb
  84753,                                  !- Barometric Pressure {Pa}
  4.7,                                    !- Wind Speed {m/s}
  170,                                    !- Wind Direction {deg}
  0,                                      !- Sky Clearness
  0,                                      !- Rain Indicator
  0,                                      !- Snow Indicator
  21,                                     !- Day of Month
  8,                                      !- Month
  SummerDesignDay,                        !- Day Type
  0,                                      !- Daylight Saving Time Indicator
  Wetbulb,                                !- Humidity Indicating Type
  ,                                       !- Humidity Indicating Day Schedule Name
  DefaultMultipliers,                     !- Dry-Bulb Temperature Range Modifier Type
  ,                                       !- Dry-Bulb Temperature Range Modifier Schedule Name
  ASHRAETau,                              !- Solar Model Indicator
  ,                                       !- Beam Solar Day Schedule Name
  ,                                       !- Diffuse Solar Day Schedule Name
  0.317,                                  !- ASHRAE Taub {dimensionless}
  2.481;                                  !- ASHRAE Taud {dimensionless}

OS:SizingPeriod:DesignDay,
  {4803b97b-5383-4126-9f51-234404b51b7b}, !- Handle
  Truth Or Consequenc December .4% Condns DB=>MCWB 1, !- Name
  19.8,                                   !- Maximum Dry-Bulb Temperature {C}
  12.5,                                   !- Daily Dry-Bulb Temperature Range {deltaC}
  7.7,                                    !- Humidity Indicating Conditions at Maximum Dry-Bulb
  84753,                                  !- Barometric Pressure {Pa}
  4.7,                                    !- Wind Speed {m/s}
  170,                                    !- Wind Direction {deg}
  0,                                      !- Sky Clearness
  0,                                      !- Rain Indicator
  0,                                      !- Snow Indicator
  21,                                     !- Day of Month
  12,                                     !- Month
  SummerDesignDay,                        !- Day Type
  0,                                      !- Daylight Saving Time Indicator
  Wetbulb,                                !- Humidity Indicating Type
  ,                                       !- Humidity Indicating Day Schedule Name
  DefaultMultipliers,                     !- Dry-Bulb Temperature Range Modifier Type
  ,                                       !- Dry-Bulb Temperature Range Modifier Schedule Name
  ASHRAETau,                              !- Solar Model Indicator
  ,                                       !- Beam Solar Day Schedule Name
  ,                                       !- Diffuse Solar Day Schedule Name
  0.282,                                  !- ASHRAE Taub {dimensionless}
  2.652;                                  !- ASHRAE Taud {dimensionless}

OS:SizingPeriod:DesignDay,
  {34fda568-12f9-4d0f-a283-e8c9337faff1}, !- Handle
  Truth Or Consequenc December .4% Condns WB=>MCDB 1, !- Name
  15.6,                                   !- Maximum Dry-Bulb Temperature {C}
  12.5,                                   !- Daily Dry-Bulb Temperature Range {deltaC}
  9.3,                                    !- Humidity Indicating Conditions at Maximum Dry-Bulb
  84753,                                  !- Barometric Pressure {Pa}
  4.7,                                    !- Wind Speed {m/s}
  170,                                    !- Wind Direction {deg}
  0,                                      !- Sky Clearness
  0,                                      !- Rain Indicator
  0,                                      !- Snow Indicator
  21,                                     !- Day of Month
  12,                                     !- Month
  SummerDesignDay,                        !- Day Type
  0,                                      !- Daylight Saving Time Indicator
  Wetbulb,                                !- Humidity Indicating Type
  ,                                       !- Humidity Indicating Day Schedule Name
  DefaultMultipliers,                     !- Dry-Bulb Temperature Range Modifier Type
  ,                                       !- Dry-Bulb Temperature Range Modifier Schedule Name
  ASHRAETau,                              !- Solar Model Indicator
  ,                                       !- Beam Solar Day Schedule Name
  ,                                       !- Diffuse Solar Day Schedule Name
  0.282,                                  !- ASHRAE Taub {dimensionless}
  2.652;                                  !- ASHRAE Taud {dimensionless}

OS:SizingPeriod:DesignDay,
  {49fdd8ed-0029-4a18-b7f0-88ed77440d64}, !- Handle
  Truth Or Consequenc February .4% Condns DB=>MCWB 1, !- Name
  23.7,                                   !- Maximum Dry-Bulb Temperature {C}
  13.8,                                   !- Daily Dry-Bulb Temperature Range {deltaC}
  8.8,                                    !- Humidity Indicating Conditions at Maximum Dry-Bulb
  84753,                                  !- Barometric Pressure {Pa}
  4.7,                                    !- Wind Speed {m/s}
  170,                                    !- Wind Direction {deg}
  0,                                      !- Sky Clearness
  0,                                      !- Rain Indicator
  0,                                      !- Snow Indicator
  21,                                     !- Day of Month
  2,                                      !- Month
  SummerDesignDay,                        !- Day Type
  0,                                      !- Daylight Saving Time Indicator
  Wetbulb,                                !- Humidity Indicating Type
  ,                                       !- Humidity Indicating Day Schedule Name
  DefaultMultipliers,                     !- Dry-Bulb Temperature Range Modifier Type
  ,                                       !- Dry-Bulb Temperature Range Modifier Schedule Name
  ASHRAETau,                              !- Solar Model Indicator
  ,                                       !- Beam Solar Day Schedule Name
  ,                                       !- Diffuse Solar Day Schedule Name
  0.276,                                  !- ASHRAE Taub {dimensionless}
  2.632;                                  !- ASHRAE Taud {dimensionless}

OS:SizingPeriod:DesignDay,
  {4d958fd7-3c89-4c1f-9c48-9d70cdbbb905}, !- Handle
  Truth Or Consequenc February .4% Condns WB=>MCDB 1, !- Name
  21.3,                                   !- Maximum Dry-Bulb Temperature {C}
  13.8,                                   !- Daily Dry-Bulb Temperature Range {deltaC}
  10.1,                                   !- Humidity Indicating Conditions at Maximum Dry-Bulb
  84753,                                  !- Barometric Pressure {Pa}
  4.7,                                    !- Wind Speed {m/s}
  170,                                    !- Wind Direction {deg}
  0,                                      !- Sky Clearness
  0,                                      !- Rain Indicator
  0,                                      !- Snow Indicator
  21,                                     !- Day of Month
  2,                                      !- Month
  SummerDesignDay,                        !- Day Type
  0,                                      !- Daylight Saving Time Indicator
  Wetbulb,                                !- Humidity Indicating Type
  ,                                       !- Humidity Indicating Day Schedule Name
  DefaultMultipliers,                     !- Dry-Bulb Temperature Range Modifier Type
  ,                                       !- Dry-Bulb Temperature Range Modifier Schedule Name
  ASHRAETau,                              !- Solar Model Indicator
  ,                                       !- Beam Solar Day Schedule Name
  ,                                       !- Diffuse Solar Day Schedule Name
  0.276,                                  !- ASHRAE Taub {dimensionless}
  2.632;                                  !- ASHRAE Taud {dimensionless}

OS:SizingPeriod:DesignDay,