
OS:Version,
  {d5807ca2-ba97-4852-914b-c545a68b3e3c}, !- Handle
  2.8.1;                                  !- Version Identifier

OS:Facility,
  {69ffc730-56d8-49f9-9e1f-01a1e8f1976f}; !- Handle

OS:Site,
  {b1a25402-aa9f-475f-8276-b7ec3559463e}, !- Handle
  CA_VAN-NUYS-AP_-_USA,                   !- Name
  34.21,                                  !- Latitude {deg}
  -118.49,                                !- Longitude {deg}
  -8,                                     !- Time Zone {hr}
  243,                                    !- Elevation {m}
  City;                                   !- Terrain

OS:SimulationControl,
  {7e61625c-cafb-46c6-a87c-94bdb8f15e64}, !- Handle
  ,                                       !- Do Zone Sizing Calculation
  ,                                       !- Do System Sizing Calculation
  ,                                       !- Do Plant Sizing Calculation
  No,                                     !- Run Simulation for Sizing Periods
  Yes;                                    !- Run Simulation for Weather File Run Periods

OS:Sizing:Parameters,
  {2b89c45f-280b-4230-a656-bf0b2918c2fe}, !- Handle
  1.25,                                   !- Heating Sizing Factor
  1.15;                                   !- Cooling Sizing Factor

OS:Timestep,
  {f1eb4d03-05d7-4427-b431-0b3adfd11926}, !- Handle
  4;                                      !- Number of Timesteps per Hour

OS:ShadowCalculation,
  {3bd8f812-140e-4f29-9272-8518942f5523}, !- Handle
  20,                                     !- Calculation Frequency
  15000;                                  !- Maximum Figures in Shadow Overlap Calculations

OS:HeatBalanceAlgorithm,
  {59b0e0a5-823b-4a75-8c13-ba4fba22daff}, !- Handle
  ConductionTransferFunction,             !- Algorithm
  200;                                    !- Surface Temperature Upper Limit {C}

OS:RunPeriod,
  {d786bab7-c9a9-4507-808e-ce1944bb8a4d}, !- Handle
  Run Period 1,                           !- Name
  1,                                      !- Begin Month
  1,                                      !- Begin Day of Month
  12,                                     !- End Month
  31,                                     !- End Day of Month
  ,                                       !- Use Weather File Holidays and Special Days
  ,                                       !- Use Weather File Daylight Saving Period
  ,                                       !- Apply Weekend Holiday Rule
  ,                                       !- Use Weather File Rain Indicators
  ,                                       !- Use Weather File Snow Indicators
  ;                                       !- Number of Times Runperiod to be Repeated

OS:LifeCycleCost:Parameters,
  {852ffb40-5d1d-4d3f-8cf9-7678565af38b}, !- Handle
  ,                                       !- Analysis Type
  ,                                       !- Discounting Convention
  ,                                       !- Inflation Approach
  ,                                       !- Real Discount Rate
  ,                                       !- Nominal Discount Rate
  ,                                       !- Inflation
  ,                                       !- Base Date Month
  ,                                       !- Base Date Year
  ,                                       !- Service Date Month
  ,                                       !- Service Date Year
  ;                                       !- Length of Study Period in Years

OS:WeatherFile,
  {43c9bc52-41cc-412b-b1ab-ce53756f0ca6}, !- Handle
  CA_VAN-NUYS-AP,                         !- City
  -,                                      !- State Province Region
  USA,                                    !- Country
  Custom-722886,                          !- Data Source
  722886,                                 !- WMO Number
  34.21,                                  !- Latitude {deg}
  -118.49,                                !- Longitude {deg}
  -8,                                     !- Time Zone {hr}
  243,                                    !- Elevation {m}
  file:////weather/CA_VAN-NUYS-AP_722886S_12.epw, !- Url
  288AE598;                               !- Checksum

OS:RunPeriodControl:DaylightSavingTime,
  {76ea6cb8-f2ae-4cec-8271-888afe2540d6}, !- Handle
  2nd Sunday in March,                    !- Start Date
  1st Sunday in November;                 !- End Date

OS:YearDescription,
  {8cbc96a6-00c7-4060-85b0-0614952f4678}, !- Handle
  ,                                       !- Calendar Year
  Thursday;                               !- Day of Week for Start Day

OS:Site:WaterMainsTemperature,
  {1c454ac6-5abd-4ba3-b983-7ed36f7d0154}, !- Handle
  Correlation,                            !- Calculation Method
  ,                                       !- Temperature Schedule Name
  19.025,                                 !- Annual Average Outdoor Air Temperature {C}
  16;                                     !- Maximum Difference In Monthly Average Outdoor Air Temperatures {deltaC}

OS:SizingPeriod:DesignDay,
  {2fc5687e-fc41-484a-af07-2032139566dc}, !- Handle
  CA_VAN-NUYS-AP Ann Clg .4% Condns DB=>MWB 1, !- Name
  37.7,                                   !- Maximum Dry-Bulb Temperature {C}
  14,                                     !- Daily Dry-Bulb Temperature Range {deltaC}
  19.8,                                   !- Humidity Indicating Conditions at Maximum Dry-Bulb
  98440,                                  !- Barometric Pressure {Pa}
  3.4,                                    !- Wind Speed {m/s}
  130,                                    !- Wind Direction {deg}
  0,                                      !- Sky Clearness
  0,                                      !- Rain Indicator
  0,                                      !- Snow Indicator
  21,                                     !- Day of Month
  7,                                      !- Month
  SummerDesignDay,                        !- Day Type
  0,                                      !- Daylight Saving Time Indicator
  Wetbulb,                                !- Humidity Indicating Type
  ,                                       !- Humidity Indicating Day Schedule Name
  DefaultMultipliers,                     !- Dry-Bulb Temperature Range Modifier Type
  ,                                       !- Dry-Bulb Temperature Range Modifier Schedule Name
  ASHRAETau,                              !- Solar Model Indicator
  ,                                       !- Beam Solar Day Schedule Name
  ,                                       !- Diffuse Solar Day Schedule Name
  0.347,                                  !- ASHRAE Taub {dimensionless}
  2.416;                                  !- ASHRAE Taud {dimensionless}

OS:SizingPeriod:DesignDay,
  {ec2e42ae-d650-43bd-ac2a-f0f31c4fe24b}, !- Handle
  CA_VAN-NUYS-AP Ann Clg .4% Condns WB=>MDB 1, !- Name
  33.7,                                   !- Maximum Dry-Bulb Temperature {C}
  14,                                     !- Daily Dry-Bulb Temperature Range {deltaC}
  22.3,                                   !- Humidity Indicating Conditions at Maximum Dry-Bulb
  98440,                                  !- Barometric Pressure {Pa}
  3.4,                                    !- Wind Speed {m/s}
  130,                                    !- Wind Direction {deg}
  0,                                      !- Sky Clearness
  0,                                      !- Rain Indicator
  0,                                      !- Snow Indicator
  21,                                     !- Day of Month
  7,                                      !- Month
  SummerDesignDay,                        !- Day Type
  0,                                      !- Daylight Saving Time Indicator
  Wetbulb,                                !- Humidity Indicating Type
  ,                                       !- Humidity Indicating Day Schedule Name
  DefaultMultipliers,                     !- Dry-Bulb Temperature Range Modifier Type
  ,                                       !- Dry-Bulb Temperature Range Modifier Schedule Name
  ASHRAETau,                              !- Solar Model Indicator
  ,                                       !- Beam Solar Day Schedule Name
  ,                                       !- Diffuse Solar Day Schedule Name
  0.347,                                  !- ASHRAE Taub {dimensionless}
  2.416;                                  !- ASHRAE Taud {dimensionless}

OS:SizingPeriod:DesignDay,
  {cb6b8bb1-74e0-4b28-b883-b33279a6dbe5}, !- Handle
  CA_VAN-NUYS-AP Ann Clg 1% Condns DB=>MWB 1, !- Name
  36.2,                                   !- Maximum Dry-Bulb Temperature {C}
  14,                                     !- Daily Dry-Bulb Temperature Range {deltaC}
  19.2,                                   !- Humidity Indicating Conditions at Maximum Dry-Bulb
  98440,                                  !- Barometric Pressure {Pa}
  3.4,                                    !- Wind Speed {m/s}
  130,                                    !- Wind Direction {deg}
  0,                                      !- Sky Clearness
  0,                                      !- Rain Indicator
  0,                                      !- Snow Indicator
  21,                                     !- Day of Month
  7,                                      !- Month
  SummerDesignDay,                        !- Day Type
  0,                                      !- Daylight Saving Time Indicator
  Wetbulb,                                !- Humidity Indicating Type
  ,                                       !- Humidity Indicating Day Schedule Name
  DefaultMultipliers,                     !- Dry-Bulb Temperature Range Modifier Type
  ,                                       !- Dry-Bulb Temperature Range Modifier Schedule Name
  ASHRAETau,                              !- Solar Model Indicator
  ,                                       !- Beam Solar Day Schedule Name
  ,                                       !- Diffuse Solar Day Schedule Name
  0.347,                                  !- ASHRAE Taub {dimensionless}
  2.416;                                  !- ASHRAE Taud {dimensionless}

OS:SizingPeriod:DesignDay,
  {11b81b8b-6d66-4623-911c-b37bd6bc039b}, !- Handle
  CA_VAN-NUYS-AP Ann Clg 2% Condns DP=>MDB 1, !- Name
  24.1,                                   !- Maximum Dry-Bulb Temperature {C}
  14,                                     !- Daily Dry-Bulb Temperature Range {deltaC}
  17.1,                                   !- Humidity Indicating Conditions at Maximum Dry-Bulb
  98440,                                  !- Barometric Pressure {Pa}
  3.4,                                    !- Wind Speed {m/s}
  130,                                    !- Wind Direction {deg}
  0,                                      !- Sky Clearness
  0,                                      !- Rain Indicator
  0,                                      !- Snow Indicator
  21,                                     !- Day of Month
  7,                                      !- Month
  SummerDesignDay,                        !- Day Type
  0,                                      !- Daylight Saving Time Indicator
  Dewpoint,                               !- Humidity Indicating Type
  ,                                       !- Humidity Indicating Day Schedule Name
  DefaultMultipliers,                     !- Dry-Bulb Temperature Range Modifier Type
  ,                                       !- Dry-Bulb Temperature Range Modifier Schedule Name
  ASHRAETau,                              !- Solar Model Indicator
  ,                                       !- Beam Solar Day Schedule Name
  ,                                       !- Diffuse Solar Day Schedule Name
  0.347,                                  !- ASHRAE Taub {dimensionless}
  2.416;                                  !- ASHRAE Taud {dimensionless}

OS:SizingPeriod:DesignDay,
  {6ebad4f6-853e-4745-a3dc-4653d34de05f}, !- Handle
  CA_VAN-NUYS-AP Ann Htg 99% Condns DB 1, !- Name
  5.1,                                    !- Maximum Dry-Bulb Temperature {C}
  0,                                      !- Daily Dry-Bulb Temperature Range {deltaC}
  5.1,                                    !- Humidity Indicating Conditions at Maximum Dry-Bulb
  98440,                                  !- Barometric Pressure {Pa}
  0.8,                                    !- Wind Speed {m/s}
  350,                                    !- Wind Direction {deg}
  0,                                      !- Sky Clearness
  0,                                      !- Rain Indicator
  0,                                      !- Snow Indicator
  21,                                     !- Day of Month
  12,                                     !- Month
  WinterDesignDay,                        !- Day Type
  0,                                      !- Daylight Saving Time Indicator
  Wetbulb,                                !- Humidity Indicating Type
  ,                                       !- Humidity Indicating Day Schedule Name
  DefaultMultipliers,                     !- Dry-Bulb Temperature Range Modifier Type
  ,                                       !- Dry-Bulb Temperature Range Modifier Schedule Name
  ASHRAEClearSky;                         !- Solar Model Indicator

OS:SizingPeriod:DesignDay,
  {648dab7e-68cc-438d-90bc-8e74c0c8cd17}, !- Handle
  CA_VAN-NUYS-AP Ann Htg 99.6% Condns DB 1, !- Name
  3.7,                                    !- Maximum Dry-Bulb Temperature {C}
  0,                                      !- Daily Dry-Bulb Temperature Range {deltaC}
  3.7,                                    !- Humidity Indicating Conditions at Maximum Dry-Bulb
  98440,                                  !- Barometric Pressure {Pa}
  0.8,                                    !- Wind Speed {m/s}
  350,                                    !- Wind Direction {deg}
  0,                                      !- Sky Clearness
  0,                                      !- Rain Indicator
  0,                                      !- Snow Indicator
  21,                                     !- Day of Month
  12,                                     !- Month
  WinterDesignDay,                        !- Day Type
  0,                                      !- Daylight Saving Time Indicator
  Wetbulb,                                !- Humidity Indicating Type
  ,                                       !- Humidity Indicating Day Schedule Name
  DefaultMultipliers,                     !- Dry-Bulb Temperature Range Modifier Type
  ,                                       !- Dry-Bulb Temperature Range Modifier Schedule Name
  ASHRAEClearSky;                         !- Solar Model Indicator

OS:SizingPeriod:DesignDay,
  {b6a17936-fa2e-4db1-b8d8-eb232a87ca92}, !- Handle
  CA_VAN-NUYS-AP Ann Htg Wind 99% Condns WS=>MCDB 1, !- Name
  15.3,                                   !- Maximum Dry-Bulb Temperature {C}
  0,                                      !- Daily Dry-Bulb Temperature Range {deltaC}
  15.3,                                   !- Humidity Indicating Conditions at Maximum Dry-Bulb
  98440,                                  !- Barometric Pressure {Pa}
  10.7,                                   !- Wind Speed {m/s}
  350,                                    !- Wind Direction {deg}
  0,                                      !- Sky Clearness
  0,                                      !- Rain Indicator
  0,                                      !- Snow Indicator
  21,                                     !- Day of Month
  12,                                     !- Month
  WinterDesignDay,                        !- Day Type
  0,                                      !- Daylight Saving Time Indicator
  Wetbulb,                                !- Humidity Indicating Type
  ,                                       !- Humidity Indicating Day Schedule Name
  DefaultMultipliers,                     !- Dry-Bulb Temperature Range Modifier Type
  ,                                       !- Dry-Bulb Temperature Range Modifier Schedule Name
  ASHRAEClearSky;                         !- Solar Model Indicator

OS:SizingPeriod:DesignDay,
  {4876fa66-2975-4624-921e-79b297969c7b}, !- Handle
  Van Nuys April .4% Condns DB=>MCWB 1,   !- Name
  35.3,                                   !- Maximum Dry-Bulb Temperature {C}
  11.5,                                   !- Daily Dry-Bulb Temperature Range {deltaC}
  15,                                     !- Humidity Indicating Conditions at Maximum Dry-Bulb
  98428,                                  !- Barometric Pressure {Pa}
  3.4,                                    !- Wind Speed {m/s}
  130,                                    !- Wind Direction {deg}
  0,                                      !- Sky Clearness
  0,                                      !- Rain Indicator
  0,                                      !- Snow Indicator
  21,                                     !- Day of Month
  4,                                      !- Month
  SummerDesignDay,                        !- Day Type
  0,                                      !- Daylight Saving Time Indicator
  Wetbulb,                                !- Humidity Indicating Type
  ,                                       !- Humidity Indicating Day Schedule Name
  DefaultMultipliers,                     !- Dry-Bulb Temperature Range Modifier Type
  ,                                       !- Dry-Bulb Temperature Range Modifier Schedule Name
  ASHRAETau,                              !- Solar Model Indicator
  ,                                       !- Beam Solar Day Schedule Name
  ,                                       !- Diffuse Solar Day Schedule Name
  0.321,                                  !- ASHRAE Taub {dimensionless}
  2.52;                                   !- ASHRAE Taud {dimensionless}

OS:SizingPeriod:DesignDay,
  {b04ebe2f-6730-41a2-987e-24f20e53a2f5}, !- Handle
  Van Nuys August .4% Condns DB=>MCWB 1,  !- Name
  39.9,                                   !- Maximum Dry-Bulb Temperature {C}
  14.6,                                   !- Daily Dry-Bulb Temperature Range {deltaC}
  20.4,                                   !- Humidity Indicating Conditions at Maximum Dry-Bulb
  98428,                                  !- Barometric Pressure {Pa}
  3.4,                                    !- Wind Speed {m/s}
  130,                                    !- Wind Direction {deg}
  0,                                      !- Sky Clearness
  0,                                      !- Rain Indicator
  0,                                      !- Snow Indicator
  21,                                     !- Day of Month
  8,                                      !- Month
  SummerDesignDay,                        !- Day Type
  0,                                      !- Daylight Saving Time Indicator
  Wetbulb,                                !- Humidity Indicating Type
  ,                                       !- Humidity Indicating Day Schedule Name
  DefaultMultipliers,                     !- Dry-Bulb Temperature Range Modifier Type
  ,                                       !- Dry-Bulb Temperature Range Modifier Schedule Name
  ASHRAETau,                              !- Solar Model Indicator
  ,                                       !- Beam Solar Day Schedule Name
  ,                                       !- Diffuse Solar Day Schedule Name
  0.355,                                  !- ASHRAE Taub {dimensionless}
  2.432;                                  !- ASHRAE Taud {dimensionless}

OS:SizingPeriod:DesignDay,
  {101de076-7d15-4c22-bc7d-a90897859edb}, !- Handle
  Van Nuys July .4% Condns DB=>MCWB 1,    !- Name
  38,                                     !- Maximum Dry-Bulb Temperature {C}
  14,                                     !- Daily Dry-Bulb Temperature Range {deltaC}
  21.6,                                   !- Humidity Indicating Conditions at Maximum Dry-Bulb
  98428,                                  !- Barometric Pressure {Pa}
  3.4,                                    !- Wind Speed {m/s}
  130,                                    !- Wind Direction {deg}
  0,                                      !- Sky Clearness
  0,                                      !- Rain Indicator
  0,                                      !- Snow Indicator
  21,                                     !- Day of Month
  7,                                      !- Month
  SummerDesignDay,                        !- Day Type
  0,                                      !- Daylight Saving Time Indicator
  Wetbulb,                                !- Humidity Indicating Type
  ,                                       !- Humidity Indicating Day Schedule Name
  DefaultMultipliers,                     !- Dry-Bulb Temperature Range Modifier Type
  ,                                       !- Dry-Bulb Temperature Range Modifier Schedule Name
  ASHRAETau,                              !- Solar Model Indicator
  ,                                       !- Beam Solar Day Schedule Name
  ,                                       !- Diffuse Solar Day Schedule Name
  0.347,                                  !- ASHRAE Taub {dimensionless}
  2.416;                                  !- ASHRAE Taud {dimensionless}

OS:SizingPeriod:DesignDay,
  {f70f0c06-8075-4f34-a177-eed55c91b0c3}, !- Handle
  Van Nuys June .4% Condns DB=>MCWB 1,    !- Name
  39,                                     !- Maximum Dry-Bulb Temperature {C}
  12.3,                                   !- Daily Dry-Bulb Temperature Range {deltaC}
  17.9,                                   !- Humidity Indicating Conditions at Maximum Dry-Bulb
  98428,                                  !- Barometric Pressure {Pa}
  3.4,                                    !- Wind Speed {m/s}
  130,                                    !- Wind Direction {deg}
  0,                                      !- Sky Clearness
  0,                                      !- Rain Indicator
  0,                                      !- Snow Indicator
  21,                                     !- Day of Month
  6,                                      !- Month
  SummerDesignDay,                        !- Day Type
  0,                                      !- Daylight Saving Time Indicator
  Wetbulb,                                !- Humidity Indicating Type
  ,                                       !- Humidity Indicating Day Schedule Name
  DefaultMultipliers,                     !- Dry-Bulb Temperature Range Modifier Type
  ,                                       !- Dry-Bulb Temperature Range Modifier Schedule Name
  ASHRAETau,                              !- Solar Model Indicator
  ,                                       !- Beam Solar Day Schedule Name
  ,                                       !- Diffuse Solar Day Schedule Name
  0.332,                                  !- ASHRAE Taub {dimensionless}
  2.429;                                  !- ASHRAE Taud {dimensionless}

OS:SizingPeriod:DesignDay,
  {c035ba9f-14ca-434c-91f8-72b2edd6554f}, !- Handle
  Van Nuys May .4% Condns DB=>MCWB 1,     !- Name
  36.2,                                   !- Maximum Dry-Bulb Temperature {C}
  11.9,                                   !- Daily Dry-Bulb Temperature Range {deltaC}
  17.4,                                   !- Humidity Indicating Conditions at Maximum Dry-Bulb
  98428,                                  !- Barometric Pressure {Pa}
  3.4,                                    !- Wind Speed {m/s}
  130,                                    !- Wind Direction {deg}
  0,                                      !- Sky Clearness
  0,                                      !- Rain Indicator
  0,                                      !- Snow Indicator
  21,                                     !- Day of Month
  5,                                      !- Month
  SummerDesignDay,                        !- Day Type
  0,                                      !- Daylight Saving Time Indicator
  Wetbulb,                                !- Humidity Indicating Type
  ,                                       !- Humidity Indicating Day Schedule Name
  DefaultMultipliers,                     !- Dry-Bulb Temperature Range Modifier Type
  ,                                       !- Dry-Bulb Temperature Range Modifier Schedule Name
  ASHRAETau,                              !- Solar Model Indicator
  ,                                       !- Beam Solar Day Schedule Name
  ,                                       !- Diffuse Solar Day Schedule Name
  0.334,                                  !- ASHRAE Taub {dimensionless}
  2.436;                                  !- ASHRAE Taud {dimensionless}

OS:SizingPeriod:DesignDay,
  {1d93b8cc-092b-4632-aba6-bb811d050484}, !- Handle
  Van Nuys October .4% Condns DB=>MCWB 1, !- Name
  36.1,                                   !- Maximum Dry-Bulb Temperature {C}
  12.7,                                   !- Daily Dry-Bulb Temperature Range {deltaC}
  17.2,                                   !- Humidity Indicating Conditions at Maximum Dry-Bulb
  98428,                                  !- Barometric Pressure {Pa}
  3.4,                                    !- Wind Speed {m/s}
  130,                                    !- Wind Direction {deg}
  0,                                      !- Sky Clearness
  0,                                      !- Rain Indicator
  0,                                      !- Snow Indicator
  21,                                     !- Day of Month
  10,                                     !- Month
  SummerDesignDay,                        !- Day Type
  0,                                      !- Daylight Saving Time Indicator
  Wetbulb,                                !- Humidity Indicating Type
  ,                                       !- Humidity Indicating Day Schedule Name
  DefaultMultipliers,                     !- Dry-Bulb Temperature Range Modifier Type
  ,                                       !- Dry-Bulb Temperature Range Modifier Schedule Name
  ASHRAETau,                              !- Solar Model Indicator
  ,                                       !- Beam Solar Day Schedule Name
  ,                                       !- Diffuse Solar Day Schedule Name
  0.357,                                  !- ASHRAE Taub {dimensionless}
  2.485;                                  !- ASHRAE Taud {dimensionless}

OS:SizingPeriod:DesignDay,
  {4fd282ba-de97-4aa4-b0e4-343a5d8f80b8}, !- Handle
  Van Nuys September .4% Condns DB=>MCWB 1, !- Name
  41,                                     !- Maximum Dry-Bulb Temperature {C}
  13.9,                                   !- Daily Dry-Bulb Temperature Range {deltaC}
  21.6,                                   !- Humidity Indicating Conditions at Maximum Dry-Bulb
  98428,                                  !- Barometric Pressure {Pa}
  3.4,                                    !- Wind Speed {m/s}
  130,                                    !- Wind Direction {deg}
  0,                                      !- Sky Clearness
  0,                                      !- Rain Indicator
  0,                                      !- Snow Indicator
  21,                                     !- Day of Month
  9,                                      !- Month
  SummerDesignDay,                        !- Day Type
  0,                                      !- Daylight Saving Time Indicator
  Wetbulb,                                !- Humidity Indicating Type
  ,                                       !- Humidity Indicating Day Schedule Name
  DefaultMultipliers,                     !- Dry-Bulb Temperature Range Modifier Type
  ,                                       !- Dry-Bulb Temperature Range Modifier Schedule Name
  ASHRAETau,                              !- Solar Model Indicator
  ,                                       !- Beam Solar Day Schedule Name
  ,                                       !- Diffuse Solar Day Schedule Name
  0.359,                                  !- ASHRAE Taub {dimensionless}
  2.47;                                   !- ASHRAE Taud {dimensionless}

OS:ClimateZones,
  {c3f4e252-dce4-474c-bd57-439900e636cf}, !- Handle
  ,                                       !- Active Institution
  ,                                       !- Active Year
  CEC,                                    !- Climate Zone Institution Name 1
  California Climate Zone Descriptions,   !- Climate Zone Document Name 1
  1995,                                   !- Climate Zone Document Year 1
  9;                                      !- Climate Zone Value 1

OS:Building,
  {6629d6c9-c5ce-495e-b082-69e516fcd8b4}, !- Handle
  DEER Pre-1975|SCn,                      !- Name
  ,                                       !- Building Sector Type
  135,                                    !- North Axis {deg}
  ,                                       !- Nominal Floor to Floor Height {m}
  ,                                       !- Space Type Name
  {312e1038-ab46-4e86-a1a5-8ccb4e0d9a7c}, !- Default Construction Set Name
  {05fa0e04-c544-4b36-a81b-ae614cfea5e3}, !- Default Schedule Set Name
  ,                                       !- Standards Number of Stories
  ,                                       !- Standards Number of Above Ground Stories
  ,                                       !- Standards Template
  SCn;                                    !- Standards Building Type

OS:SpaceType,
  {a63bf964-ff72-4651-ab65-96b71c2ea7b3}, !- Handle
  SCn WarehouseCond - DEER Pre-1975,      !- Name
  ,                                       !- Default Construction Set Name
  {6dfe6ea0-31ca-4025-98d4-2efe88f9aa5e}, !- Default Schedule Set Name
  ,                                       !- Group Rendering Name
  {ea760ea6-f575-4384-b18f-0aa11e72226b}, !- Design Specification Outdoor Air Object Name
  ,                                       !- Standards Template
  SCn,                                    !- Standards Building Type
  WarehouseCond;                          !- Standards Space Type

OS:BuildingStory,