
OS:Version,
  {8b137584-fea5-424a-81d0-5133df05dfaf}, !- Handle
  2.9.0;                                  !- Version Identifier

OS:WeatherFile,
  {8cbf7386-af19-4c27-b2b7-9ba921a71ef7}, !- Handle
  Tinker Afb,                             !- City
  OK,                                     !- State Province Region
  USA,                                    !- Country
  customized weather file,                !- Data Source
  723540,                                 !- WMO Number
  35.42,                                  !- Latitude {deg}
  -97.38,                                 !- Longitude {deg}
  -6,                                     !- Time Zone {hr}
  397,                                    !- Elevation {m}
  file:////var/simdata/openstudio/weather/USA_OK_Tinker.Afb.723540_2012.epw, !- Url
  226BE93E;                               !- Checksum

OS:YearDescription,
  {8291c262-58a0-4fac-a556-36890279e804}, !- Handle
  2018,                                   !- Calendar Year
  ,                                       !- Day of Week for Start Day
  ;                                       !- Is Leap Year

OS:Timestep,
  {c9964809-db9a-4c07-b05e-c2965bdaad30}, !- Handle
  4;                                      !- Number of Timesteps per Hour

OS:RunPeriod,
  {8e7feadb-a191-4100-8f67-f4479aaeb00e}, !- Handle
  Run Period 1,                           !- Name
  1,                                      !- Begin Month
  1,                                      !- Begin Day of Month
  12,                                     !- End Month
  31,                                     !- End Day of Month
  ,                                       !- Use Weather File Holidays and Special Days
  ,                                       !- Use Weather File Daylight Saving Period
  ,                                       !- Apply Weekend Holiday Rule
  ,                                       !- Use Weather File Rain Indicators
  ,                                       !- Use Weather File Snow Indicators
  ;                                       !- Number of Times Runperiod to be Repeated

OS:Site,
  {95613783-e24a-4645-a984-078e4b366f08}, !- Handle
  Tinker Afb_OK_USA,                      !- Name
  35.42,                                  !- Latitude {deg}
  -97.38,                                 !- Longitude {deg}
  -6,                                     !- Time Zone {hr}
  397,                                    !- Elevation {m}
  City;                                   !- Terrain

OS:Site:WaterMainsTemperature,
  {5c23a07f-ea2a-4a9d-b675-b2e9672f169a}, !- Handle
  Correlation,                            !- Calculation Method
  ,                                       !- Temperature Schedule Name
  17.85,                                  !- Annual Average Outdoor Air Temperature {C}
  24.2;                                   !- Maximum Difference In Monthly Average Outdoor Air Temperatures {deltaC}

OS:SizingPeriod:DesignDay,
  {e6a1bb98-0c8b-43e9-a395-c31cb05651dd}, !- Handle
  Tinker Afb Ann Clg .4% Condns DB=>MWB 1, !- Name
  37.4,                                   !- Maximum Dry-Bulb Temperature {C}
  11.1,                                   !- Daily Dry-Bulb Temperature Range {deltaC}
  22.7,                                   !- Humidity Indicating Conditions at Maximum Dry-Bulb
  96646,                                  !- Barometric Pressure {Pa}
  4.9,                                    !- Wind Speed {m/s}
  190,                                    !- Wind Direction {deg}
  0,                                      !- Sky Clearness
  0,                                      !- Rain Indicator
  0,                                      !- Snow Indicator
  21,                                     !- Day of Month
  7,                                      !- Month
  SummerDesignDay,                        !- Day Type
  0,                                      !- Daylight Saving Time Indicator
  Wetbulb,                                !- Humidity Indicating Type
  ,                                       !- Humidity Indicating Day Schedule Name
  DefaultMultipliers,                     !- Dry-Bulb Temperature Range Modifier Type
  ,                                       !- Dry-Bulb Temperature Range Modifier Schedule Name
  ASHRAETau,                              !- Solar Model Indicator
  ,                                       !- Beam Solar Day Schedule Name
  ,                                       !- Diffuse Solar Day Schedule Name
  0.384,                                  !- ASHRAE Taub {dimensionless}
  2.357;                                  !- ASHRAE Taud {dimensionless}

OS:SizingPeriod:DesignDay,
  {c18b3412-94f7-4668-a2cb-a1af1fa80a6e}, !- Handle
  Tinker Afb Ann Clg .4% Condns WB=>MDB 1, !- Name
  31.8,                                   !- Maximum Dry-Bulb Temperature {C}
  11.1,                                   !- Daily Dry-Bulb Temperature Range {deltaC}
  25.2,                                   !- Humidity Indicating Conditions at Maximum Dry-Bulb
  96646,                                  !- Barometric Pressure {Pa}
  4.9,                                    !- Wind Speed {m/s}
  190,                                    !- Wind Direction {deg}
  0,                                      !- Sky Clearness
  0,                                      !- Rain Indicator
  0,                                      !- Snow Indicator
  21,                                     !- Day of Month
  7,                                      !- Month
  SummerDesignDay,                        !- Day Type
  0,                                      !- Daylight Saving Time Indicator
  Wetbulb,                                !- Humidity Indicating Type
  ,                                       !- Humidity Indicating Day Schedule Name
  DefaultMultipliers,                     !- Dry-Bulb Temperature Range Modifier Type
  ,                                       !- Dry-Bulb Temperature Range Modifier Schedule Name
  ASHRAETau,                              !- Solar Model Indicator
  ,                                       !- Beam Solar Day Schedule Name
  ,                                       !- Diffuse Solar Day Schedule Name
  0.384,                                  !- ASHRAE Taub {dimensionless}
  2.357;                                  !- ASHRAE Taud {dimensionless}

OS:SizingPeriod:DesignDay,
  {914443d1-33b9-4bf2-882e-27673117a6d8}, !- Handle
  Tinker Afb Ann Clg 1% Condns DB=>MWB 1, !- Name
  36,                                     !- Maximum Dry-Bulb Temperature {C}
  11.1,                                   !- Daily Dry-Bulb Temperature Range {deltaC}
  22.8,                                   !- Humidity Indicating Conditions at Maximum Dry-Bulb
  96646,                                  !- Barometric Pressure {Pa}
  4.9,                                    !- Wind Speed {m/s}
  190,                                    !- Wind Direction {deg}
  0,                                      !- Sky Clearness
  0,                                      !- Rain Indicator
  0,                                      !- Snow Indicator
  21,                                     !- Day of Month
  7,                                      !- Month
  SummerDesignDay,                        !- Day Type
  0,                                      !- Daylight Saving Time Indicator
  Wetbulb,                                !- Humidity Indicating Type
  ,                                       !- Humidity Indicating Day Schedule Name
  DefaultMultipliers,                     !- Dry-Bulb Temperature Range Modifier Type
  ,                                       !- Dry-Bulb Temperature Range Modifier Schedule Name
  ASHRAETau,                              !- Solar Model Indicator
  ,                                       !- Beam Solar Day Schedule Name
  ,                                       !- Diffuse Solar Day Schedule Name
  0.384,                                  !- ASHRAE Taub {dimensionless}
  2.357;                                  !- ASHRAE Taud {dimensionless}

OS:SizingPeriod:DesignDay,
  {8e4b5592-a637-4da6-8d9e-57be03ee7903}, !- Handle
  Tinker Afb Ann Clg 2% Condns DP=>MDB 1, !- Name
  26.8,                                   !- Maximum Dry-Bulb Temperature {C}
  11.1,                                   !- Daily Dry-Bulb Temperature Range {deltaC}
  22.4,                                   !- Humidity Indicating Conditions at Maximum Dry-Bulb
  96646,                                  !- Barometric Pressure {Pa}
  4.9,                                    !- Wind Speed {m/s}
  190,                                    !- Wind Direction {deg}
  0,                                      !- Sky Clearness
  0,                                      !- Rain Indicator
  0,                                      !- Snow Indicator
  21,                                     !- Day of Month
  7,                                      !- Month
  SummerDesignDay,                        !- Day Type
  0,                                      !- Daylight Saving Time Indicator
  Dewpoint,                               !- Humidity Indicating Type
  ,                                       !- Humidity Indicating Day Schedule Name
  DefaultMultipliers,                     !- Dry-Bulb Temperature Range Modifier Type
  ,                                       !- Dry-Bulb Temperature Range Modifier Schedule Name
  ASHRAETau,                              !- Solar Model Indicator
  ,                                       !- Beam Solar Day Schedule Name
  ,                                       !- Diffuse Solar Day Schedule Name
  0.384,                                  !- ASHRAE Taub {dimensionless}
  2.357;                                  !- ASHRAE Taud {dimensionless}

OS:SizingPeriod:DesignDay,
  {f226dfed-0603-4882-b35b-9bea41555451}, !- Handle
  Tinker Afb Ann Htg 99% Condns DB 1,     !- Name
  -7.3,                                   !- Maximum Dry-Bulb Temperature {C}
  0,                                      !- Daily Dry-Bulb Temperature Range {deltaC}
  -7.3,                                   !- Humidity Indicating Conditions at Maximum Dry-Bulb
  96646,                                  !- Barometric Pressure {Pa}
  4.8,                                    !- Wind Speed {m/s}
  350,                                    !- Wind Direction {deg}
  0,                                      !- Sky Clearness
  0,                                      !- Rain Indicator
  0,                                      !- Snow Indicator
  21,                                     !- Day of Month
  1,                                      !- Month
  WinterDesignDay,                        !- Day Type
  0,                                      !- Daylight Saving Time Indicator
  Wetbulb,                                !- Humidity Indicating Type
  ,                                       !- Humidity Indicating Day Schedule Name
  DefaultMultipliers,                     !- Dry-Bulb Temperature Range Modifier Type
  ,                                       !- Dry-Bulb Temperature Range Modifier Schedule Name
  ASHRAEClearSky;                         !- Solar Model Indicator

OS:SizingPeriod:DesignDay,
  {f8efa2a8-0b1e-498e-bb49-4e9ce55338df}, !- Handle
  Tinker Afb Ann Htg 99.6% Condns DB 1,   !- Name
  -9,                                     !- Maximum Dry-Bulb Temperature {C}
  0,                                      !- Daily Dry-Bulb Temperature Range {deltaC}
  -9,                                     !- Humidity Indicating Conditions at Maximum Dry-Bulb
  96646,                                  !- Barometric Pressure {Pa}
  4.8,                                    !- Wind Speed {m/s}
  350,                                    !- Wind Direction {deg}
  0,                                      !- Sky Clearness
  0,                                      !- Rain Indicator
  0,                                      !- Snow Indicator
  21,                                     !- Day of Month
  1,                                      !- Month
  WinterDesignDay,                        !- Day Type
  0,                                      !- Daylight Saving Time Indicator
  Wetbulb,                                !- Humidity Indicating Type
  ,                                       !- Humidity Indicating Day Schedule Name
  DefaultMultipliers,                     !- Dry-Bulb Temperature Range Modifier Type
  ,                                       !- Dry-Bulb Temperature Range Modifier Schedule Name
  ASHRAEClearSky;                         !- Solar Model Indicator

OS:SizingPeriod:DesignDay,
  {67177dc0-d3a0-4331-8196-238f870dcd63}, !- Handle
  Tinker Afb Ann Htg Wind 99% Condns WS=>MCDB 1, !- Name
  8.3,                                    !- Maximum Dry-Bulb Temperature {C}
  0,                                      !- Daily Dry-Bulb Temperature Range {deltaC}
  8.3,                                    !- Humidity Indicating Conditions at Maximum Dry-Bulb
  96646,                                  !- Barometric Pressure {Pa}
  12,                                     !- Wind Speed {m/s}
  350,                                    !- Wind Direction {deg}
  0,                                      !- Sky Clearness
  0,                                      !- Rain Indicator
  0,                                      !- Snow Indicator
  21,                                     !- Day of Month
  1,                                      !- Month
  WinterDesignDay,                        !- Day Type
  0,                                      !- Daylight Saving Time Indicator
  Wetbulb,                                !- Humidity Indicating Type
  ,                                       !- Humidity Indicating Day Schedule Name
  DefaultMultipliers,                     !- Dry-Bulb Temperature Range Modifier Type
  ,                                       !- Dry-Bulb Temperature Range Modifier Schedule Name
  ASHRAEClearSky;                         !- Solar Model Indicator

OS:SizingPeriod:DesignDay,
  {cad53559-44f1-41aa-916b-470d1ca59846}, !- Handle
  Tinker Afb April .4% Condns DB=>MCWB 1, !- Name
  31.2,                                   !- Maximum Dry-Bulb Temperature {C}
  11.3,                                   !- Daily Dry-Bulb Temperature Range {deltaC}
  18.5,                                   !- Humidity Indicating Conditions at Maximum Dry-Bulb
  96646,                                  !- Barometric Pressure {Pa}
  4.9,                                    !- Wind Speed {m/s}
  190,                                    !- Wind Direction {deg}
  0,                                      !- Sky Clearness
  0,                                      !- Rain Indicator
  0,                                      !- Snow Indicator
  21,                                     !- Day of Month
  4,                                      !- Month
  SummerDesignDay,                        !- Day Type
  0,                                      !- Daylight Saving Time Indicator
  Wetbulb,                                !- Humidity Indicating Type
  ,                                       !- Humidity Indicating Day Schedule Name
  DefaultMultipliers,                     !- Dry-Bulb Temperature Range Modifier Type
  ,                                       !- Dry-Bulb Temperature Range Modifier Schedule Name
  ASHRAETau,                              !- Solar Model Indicator
  ,                                       !- Beam Solar Day Schedule Name
  ,                                       !- Diffuse Solar Day Schedule Name
  0.343,                                  !- ASHRAE Taub {dimensionless}
  2.404;                                  !- ASHRAE Taud {dimensionless}

OS:SizingPeriod:DesignDay,
  {1ae223ee-e202-4216-8611-c5f161b14790}, !- Handle
  Tinker Afb April .4% Condns WB=>MCDB 1, !- Name
  26.9,                                   !- Maximum Dry-Bulb Temperature {C}
  11.3,                                   !- Daily Dry-Bulb Temperature Range {deltaC}
  22.4,                                   !- Humidity Indicating Conditions at Maximum Dry-Bulb
  96646,                                  !- Barometric Pressure {Pa}
  4.9,                                    !- Wind Speed {m/s}
  190,                                    !- Wind Direction {deg}
  0,                                      !- Sky Clearness
  0,                                      !- Rain Indicator
  0,                                      !- Snow Indicator
  21,                                     !- Day of Month
  4,                                      !- Month
  SummerDesignDay,                        !- Day Type
  0,                                      !- Daylight Saving Time Indicator
  Wetbulb,                                !- Humidity Indicating Type
  ,                                       !- Humidity Indicating Day Schedule Name
  DefaultMultipliers,                     !- Dry-Bulb Temperature Range Modifier Type
  ,                                       !- Dry-Bulb Temperature Range Modifier Schedule Name
  ASHRAETau,                              !- Solar Model Indicator
  ,                                       !- Beam Solar Day Schedule Name
  ,                                       !- Diffuse Solar Day Schedule Name
  0.343,                                  !- ASHRAE Taub {dimensionless}
  2.404;                                  !- ASHRAE Taud {dimensionless}

OS:SizingPeriod:DesignDay,
  {0fc155d4-eb6a-4ae9-94b7-1e62692cd831}, !- Handle
  Tinker Afb August .4% Condns DB=>MCWB 1, !- Name
  38.8,                                   !- Maximum Dry-Bulb Temperature {C}
  11.3,                                   !- Daily Dry-Bulb Temperature Range {deltaC}
  22.9,                                   !- Humidity Indicating Conditions at Maximum Dry-Bulb
  96646,                                  !- Barometric Pressure {Pa}
  4.9,                                    !- Wind Speed {m/s}
  190,                                    !- Wind Direction {deg}
  0,                                      !- Sky Clearness
  0,                                      !- Rain Indicator
  0,                                      !- Snow Indicator
  21,                                     !- Day of Month
  8,                                      !- Month
  SummerDesignDay,                        !- Day Type
  0,                                      !- Daylight Saving Time Indicator
  Wetbulb,                                !- Humidity Indicating Type
  ,                                       !- Humidity Indicating Day Schedule Name
  DefaultMultipliers,                     !- Dry-Bulb Temperature Range Modifier Type
  ,                                       !- Dry-Bulb Temperature Range Modifier Schedule Name
  ASHRAETau,                              !- Solar Model Indicator
  ,                                       !- Beam Solar Day Schedule Name
  ,                                       !- Diffuse Solar Day Schedule Name
  0.384,                                  !- ASHRAE Taub {dimensionless}
  2.362;                                  !- ASHRAE Taud {dimensionless}

OS:SizingPeriod:DesignDay,
  {608db9ec-c1ae-4340-85a0-40bac12bdc60}, !- Handle
  Tinker Afb August .4% Condns WB=>MCDB 1, !- Name
  32.8,                                   !- Maximum Dry-Bulb Temperature {C}
  11.3,                                   !- Daily Dry-Bulb Temperature Range {deltaC}
  25.7,                                   !- Humidity Indicating Conditions at Maximum Dry-Bulb
  96646,                                  !- Barometric Pressure {Pa}
  4.9,                                    !- Wind Speed {m/s}
  190,                                    !- Wind Direction {deg}
  0,                                      !- Sky Clearness
  0,                                      !- Rain Indicator
  0,                                      !- Snow Indicator
  21,                                     !- Day of Month
  8,                                      !- Month
  SummerDesignDay,                        !- Day Type
  0,                                      !- Daylight Saving Time Indicator
  Wetbulb,                                !- Humidity Indicating Type
  ,                                       !- Humidity Indicating Day Schedule Name
  DefaultMultipliers,                     !- Dry-Bulb Temperature Range Modifier Type
  ,                                       !- Dry-Bulb Temperature Range Modifier Schedule Name
  ASHRAETau,                              !- Solar Model Indicator
  ,                                       !- Beam Solar Day Schedule Name
  ,                                       !- Diffuse Solar Day Schedule Name
  0.384,                                  !- ASHRAE Taub {dimensionless}
  2.362;                                  !- ASHRAE Taud {dimensionless}

OS:SizingPeriod:DesignDay,
  {673f4677-7d86-4722-b8cb-1ba4b427b0fc}, !- Handle
  Tinker Afb December .4% Condns DB=>MCWB 1, !- Name
  21.2,                                   !- Maximum Dry-Bulb Temperature {C}
  10.7,                                   !- Daily Dry-Bulb Temperature Range {deltaC}
  14.8,                                   !- Humidity Indicating Conditions at Maximum Dry-Bulb
  96646,                                  !- Barometric Pressure {Pa}
  4.9,                                    !- Wind Speed {m/s}
  190,                                    !- Wind Direction {deg}
  0,                                      !- Sky Clearness
  0,                                      !- Rain Indicator
  0,                                      !- Snow Indicator
  21,                                     !- Day of Month
  12,                                     !- Month
  SummerDesignDay,                        !- Day Type
  0,                                      !- Daylight Saving Time Indicator
  Wetbulb,                                !- Humidity Indicating Type
  ,                                       !- Humidity Indicating Day Schedule Name
  DefaultMultipliers,                     !- Dry-Bulb Temperature Range Modifier Type
  ,                                       !- Dry-Bulb Temperature Range Modifier Schedule Name
  ASHRAETau,                              !- Solar Model Indicator
  ,                                       !- Beam Solar Day Schedule Name
  ,                                       !- Diffuse Solar Day Schedule Name
  0.302,                                  !- ASHRAE Taub {dimensionless}
  2.619;                                  !- ASHRAE Taud {dimensionless}

OS:SizingPeriod:DesignDay,
  {997ca5ff-c8a4-4988-9de0-aedfa9d95494}, !- Handle
  Tinker Afb December .4% Condns WB=>MCDB 1, !- Name
  19.6,                                   !- Maximum Dry-Bulb Temperature {C}
  10.7,                                   !- Daily Dry-Bulb Temperature Range {deltaC}
  17.7,                                   !- Humidity Indicating Conditions at Maximum Dry-Bulb
  96646,                                  !- Barometric Pressure {Pa}
  4.9,                                    !- Wind Speed {m/s}
  190,                                    !- Wind Direction {deg}
  0,                                      !- Sky Clearness
  0,                                      !- Rain Indicator
  0,                                      !- Snow Indicator
  21,                                     !- Day of Month
  12,                                     !- Month
  SummerDesignDay,                        !- Day Type
  0,                                      !- Daylight Saving Time Indicator
  Wetbulb,                                !- Humidity Indicating Type
  ,                                       !- Humidity Indicating Day Schedule Name
  DefaultMultipliers,                     !- Dry-Bulb Temperature Range Modifier Type
  ,                                       !- Dry-Bulb Temperature Range Modifier Schedule Name
  ASHRAETau,                              !- Solar Model Indicator
  ,                                       !- Beam Solar Day Schedule Name
  ,                                       !- Diffuse Solar Day Schedule Name
  0.302,                                  !- ASHRAE Taub {dimensionless}
  2.619;                                  !- ASHRAE Taud {dimensionless}

OS:SizingPeriod:DesignDay,
  {c2ba1ff8-5599-41a6-88a7-aa1bb8b28a92}, !- Handle
  Tinker Afb February .4% Condns DB=>MCWB 1, !- Name
  23.8,                                   !- Maximum Dry-Bulb Temperature {C}
  11.3,                                   !- Daily Dry-Bulb Temperature Range {deltaC}
  14.1,                                   !- Humidity Indicating Conditions at Maximum Dry-Bulb
  96646,                                  !- Barometric Pressure {Pa}
  4.9,                                    !- Wind Speed {m/s}
  190,                                    !- Wind Direction {deg}
  0,                                      !- Sky Clearness
  0,                                      !- Rain Indicator
  0,                                      !- Snow Indicator
  21,                                     !- Day of Month
  2,                                      !- Month
  SummerDesignDay,                        !- Day Type
  0,                                      !- Daylight Saving Time Indicator
  Wetbulb,                                !- Humidity Indicating Type
  ,                                       !- Humidity Indicating Day Schedule Name
  DefaultMultipliers,                     !- Dry-Bulb Temperature Range Modifier Type
  ,                                       !- Dry-Bulb Temperature Range Modifier Schedule Name
  ASHRAETau,                              !- Solar Model Indicator
  ,                                       !- Beam Solar Day Schedule Name
  ,                                       !- Diffuse Solar Day Schedule Name
  0.318,                                  !- ASHRAE Taub {dimensionless}
  2.548;                                  !- ASHRAE Taud {dimensionless}

OS:SizingPeriod:DesignDay,
  {df10870d-b249-41f4-89b6-8c8234ffbcb0}, !- Handle
  Tinker Afb February .4% Condns WB=>MCDB 1, !- Name
  19,                                     !- Maximum Dry-Bulb Temperature {C}
  11.3,                                   !- Daily Dry-Bulb Temperature Range {deltaC}
  17,                                     !- Humidity Indicating Conditions at Maximum Dry-Bulb
  96646,                                  !- Barometric Pressure {Pa}
  4.9,                                    !- Wind Speed {m/s}
  190,                                    !- Wind Direction {deg}
  0,                                      !- Sky Clearness
  0,                                      !- Rain Indicator
  0,                                      !- Snow Indicator
  21,                                     !- Day of Month
  2,                                      !- Month
  SummerDesignDay,                        !- Day Type
  0,                                      !- Daylight Saving Time Indicator
  Wetbulb,                                !- Humidity Indicating Type
  ,                                       !- Humidity Indicating Day Schedule Name
  DefaultMultipliers,                     !- Dry-Bulb Temperature Range Modifier Type
  ,                                       !- Dry-Bulb Temperature Range Modifier Schedule Name
  ASHRAETau,                              !- Solar Model Indicator
  ,                                       !- Beam Solar Day Schedule Name
  ,                                       !- Diffuse Solar Day Schedule Name
  0.318,                                  !- ASHRAE Taub {dimensionless}
  2.548;                                  !- ASHRAE Taud {dimensionless}

OS:SizingPeriod:DesignDay,
  {201930c0-9aa5-4219-91fa-d3d89cfeaf16}, !- Handle
  Tinker Afb January .4% Condns DB=>MCWB 1, !- Name
  22.3,                                   !- Maximum Dry-Bulb Temperature {C}
  11.1,                                   !- Daily Dry-Bulb Temperature Range {deltaC}
  11.9,                                   !- Humidity Indicating Conditions at Maximum Dry-Bulb
  96646,                                  !- Barometric Pressure {Pa}
  4.9,                                    !- Wind Speed {m/s}
  190,                                    !- Wind Direction {deg}
  0,                                      !- Sky Clearness
  0,                                      !- Rain Indicator
  0,                                      !- Snow Indicator
  21,                                     !- Day of Month
  1,                                      !- Month
  SummerDesignDay,                        !- Day Type
  0,                                      !- Daylight Saving Time Indicator
  Wetbulb,                                !- Humidity Indicating Type
  ,                                       !- Humidity Indicating Day Schedule Name
  DefaultMultipliers,                     !- Dry-Bulb Temperature Range Modifier Type
  ,                                       !- Dry-Bulb Temperature Range Modifier Schedule Name
  ASHRAETau,                              !- Solar Model Indicator
  ,                                       !- Beam Solar Day Schedule Name
  ,                                       !- Diffuse Solar Day Schedule Name
  0.301,                                  !- ASHRAE Taub {dimensionless}
  2.639;                                  !- ASHRAE Taud {dimensionless}

OS:SizingPeriod:DesignDay,
  {a59a413a-0f38-4665-9b8d-a655432c8dba}, !- Handle
  Tinker Afb January .4% Condns WB=>MCDB 1, !- Name
  17.4,                                   !- Maximum Dry-Bulb Temperature {C}
  11.1,                                   !- Daily Dry-Bulb Temperature Range {deltaC}
  16.1,                                   !- Humidity Indicating Conditions at Maximum Dry-Bulb
  96646,                                  !- Barometric Pressure {Pa}
  4.9,                                    !- Wind Speed {m/s}
  190,                                    !- Wind Direction {deg}
  0,                                      !- Sky Clearness