
Version,
  23.2;                                   !- Version Identifier

Timestep,
  4;                                      !- Number of Timesteps per Hour

LifeCycleCost:Parameters,
  Life Cycle Cost Parameters,             !- Name
  EndOfYear,                              !- Discounting Convention
  ConstantDollar,                         !- Inflation Approach
  0.03,                                   !- Real Discount Rate
  ,                                       !- Nominal Discount Rate
  ,                                       !- Inflation
  ,                                       !- Base Date Month
  2011,                                   !- Base Date Year
  ,                                       !- Service Date Month
  2011,                                   !- Service Date Year
  25,                                     !- Length of Study Period in Years
  ,                                       !- Tax rate
  None;                                   !- Depreciation Method

LifeCycleCost:UsePriceEscalation,
  U.S. Avg  Commercial-Electricity,       !- Name
  Electricity,                            !- Resource
  2011,                                   !- Escalation Start Year
  January,                                !- Escalation Start Month
  0.9838,                                 !- Year Escalation 1
  0.9730,                                 !- Year Escalation 2
  0.9632,                                 !- Year Escalation 3
  0.9611,                                 !- Year Escalation 4
  0.9571,                                 !- Year Escalation 5
  0.9553,                                 !- Year Escalation 6
  0.9539,                                 !- Year Escalation 7
  0.9521,                                 !- Year Escalation 8
  0.9546,                                 !- Year Escalation 9
  0.9550,                                 !- Year Escalation 10
  0.9553,                                 !- Year Escalation 11
  0.9564,                                 !- Year Escalation 12
  0.9575,                                 !- Year Escalation 13
  0.9596,                                 !- Year Escalation 14
  0.9618,                                 !- Year Escalation 15
  0.9614,                                 !- Year Escalation 16
  0.9618,                                 !- Year Escalation 17
  0.9618,                                 !- Year Escalation 18
  0.9593,                                 !- Year Escalation 19
  0.9589,                                 !- Year Escalation 20
  0.9607,                                 !- Year Escalation 21
  0.9625,                                 !- Year Escalation 22
  0.9650,                                 !- Year Escalation 23
  0.9708,                                 !- Year Escalation 24
  0.9751,                                 !- Year Escalation 25
  0.9762,                                 !- Year Escalation 26
  0.9766,                                 !- Year Escalation 27
  0.9766,                                 !- Year Escalation 28
  0.9769,                                 !- Year Escalation 29
  0.9773;                                 !- Year Escalation 30

LifeCycleCost:UsePriceEscalation,
  U.S. Avg  Commercial-Distillate Oil,    !- Name
  FuelOilNo1,                             !- Resource
  2011,                                   !- Escalation Start Year
  January,                                !- Escalation Start Month
  0.9714,                                 !- Year Escalation 1
  0.9730,                                 !- Year Escalation 2
  0.9942,                                 !- Year Escalation 3
  1.0164,                                 !- Year Escalation 4
  1.0541,                                 !- Year Escalation 5
  1.0928,                                 !- Year Escalation 6
  1.1267,                                 !- Year Escalation 7
  1.1580,                                 !- Year Escalation 8
  1.1792,                                 !- Year Escalation 9
  1.1967,                                 !- Year Escalation 10
  1.2200,                                 !- Year Escalation 11
  1.2333,                                 !- Year Escalation 12
  1.2566,                                 !- Year Escalation 13
  1.2709,                                 !- Year Escalation 14
  1.2826,                                 !- Year Escalation 15
  1.2985,                                 !- Year Escalation 16
  1.3102,                                 !- Year Escalation 17
  1.3250,                                 !- Year Escalation 18
  1.3261,                                 !- Year Escalation 19
  1.3282,                                 !- Year Escalation 20
  1.3324,                                 !- Year Escalation 21
  1.3356,                                 !- Year Escalation 22
  1.3431,                                 !- Year Escalation 23
  1.3510,                                 !- Year Escalation 24
  1.3568,                                 !- Year Escalation 25
  1.3606,                                 !- Year Escalation 26
  1.3637,                                 !- Year Escalation 27
  1.3674,                                 !- Year Escalation 28
  1.3706,                                 !- Year Escalation 29
  1.3743;                                 !- Year Escalation 30

LifeCycleCost:UsePriceEscalation,
  U.S. Avg  Commercial-Residual Oil,      !- Name
  FuelOilNo2,                             !- Resource
  2011,                                   !- Escalation Start Year
  January,                                !- Escalation Start Month
  0.8469,                                 !- Year Escalation 1
  0.8257,                                 !- Year Escalation 2
  0.8681,                                 !- Year Escalation 3
  0.8988,                                 !- Year Escalation 4
  0.9289,                                 !- Year Escalation 5
  0.9604,                                 !- Year Escalation 6
  0.9897,                                 !- Year Escalation 7
  1.0075,                                 !- Year Escalation 8
  1.0314,                                 !- Year Escalation 9
  1.0554,                                 !- Year Escalation 10
  1.0861,                                 !- Year Escalation 11
  1.1278,                                 !- Year Escalation 12
  1.1497,                                 !- Year Escalation 13
  1.1620,                                 !- Year Escalation 14
  1.1743,                                 !- Year Escalation 15
  1.1852,                                 !- Year Escalation 16
  1.1948,                                 !- Year Escalation 17
  1.2037,                                 !- Year Escalation 18
  1.2071,                                 !- Year Escalation 19
  1.2119,                                 !- Year Escalation 20
  1.2139,                                 !- Year Escalation 21
  1.2194,                                 !- Year Escalation 22
  1.2276,                                 !- Year Escalation 23
  1.2365,                                 !- Year Escalation 24
  1.2420,                                 !- Year Escalation 25
  1.2461,                                 !- Year Escalation 26
  1.2509,                                 !- Year Escalation 27
  1.2550,                                 !- Year Escalation 28
  1.2591,                                 !- Year Escalation 29
  1.2638;                                 !- Year Escalation 30

LifeCycleCost:UsePriceEscalation,
  U.S. Avg  Commercial-Natural gas,       !- Name
  NaturalGas,                             !- Resource
  2011,                                   !- Escalation Start Year
  January,                                !- Escalation Start Month
  0.9823,                                 !- Year Escalation 1
  0.9557,                                 !- Year Escalation 2
  0.9279,                                 !- Year Escalation 3
  0.9257,                                 !- Year Escalation 4
  0.9346,                                 !- Year Escalation 5
  0.9412,                                 !- Year Escalation 6
  0.9512,                                 !- Year Escalation 7
  0.9645,                                 !- Year Escalation 8
  0.9856,                                 !- Year Escalation 9
  1.0067,                                 !- Year Escalation 10
  1.0222,                                 !- Year Escalation 11
  1.0410,                                 !- Year Escalation 12
  1.0610,                                 !- Year Escalation 13
  1.0787,                                 !- Year Escalation 14
  1.0942,                                 !- Year Escalation 15
  1.1098,                                 !- Year Escalation 16
  1.1220,                                 !- Year Escalation 17
  1.1308,                                 !- Year Escalation 18
  1.1386,                                 !- Year Escalation 19
  1.1486,                                 !- Year Escalation 20
  1.1619,                                 !- Year Escalation 21
  1.1763,                                 !- Year Escalation 22
  1.1918,                                 !- Year Escalation 23
  1.2118,                                 !- Year Escalation 24
  1.2284,                                 !- Year Escalation 25
  1.2439,                                 !- Year Escalation 26
  1.2605,                                 !- Year Escalation 27
  1.2772,                                 !- Year Escalation 28
  1.2938,                                 !- Year Escalation 29
  1.3115;                                 !- Year Escalation 30

LifeCycleCost:UsePriceEscalation,
  U.S. Avg  Commercial-Coal,              !- Name
  Coal,                                   !- Resource
  2011,                                   !- Escalation Start Year
  January,                                !- Escalation Start Month
  0.9970,                                 !- Year Escalation 1
  1.0089,                                 !- Year Escalation 2
  1.0089,                                 !- Year Escalation 3
  0.9941,                                 !- Year Escalation 4
  0.9941,                                 !- Year Escalation 5
  1.0000,                                 !- Year Escalation 6
  1.0030,                                 !- Year Escalation 7
  1.0059,                                 !- Year Escalation 8
  1.0089,                                 !- Year Escalation 9
  1.0119,                                 !- Year Escalation 10
  1.0148,                                 !- Year Escalation 11
  1.0178,                                 !- Year Escalation 12
  1.0208,                                 !- Year Escalation 13
  1.0267,                                 !- Year Escalation 14
  1.0297,                                 !- Year Escalation 15
  1.0356,                                 !- Year Escalation 16
  1.0415,                                 !- Year Escalation 17
  1.0534,                                 !- Year Escalation 18
  1.0564,                                 !- Year Escalation 19
  1.0593,                                 !- Year Escalation 20
  1.0653,                                 !- Year Escalation 21
  1.0712,                                 !- Year Escalation 22
  1.0742,                                 !- Year Escalation 23
  1.0801,                                 !- Year Escalation 24
  1.0831,                                 !- Year Escalation 25
  1.0831,                                 !- Year Escalation 26
  1.0861,                                 !- Year Escalation 27
  1.0890,                                 !- Year Escalation 28
  1.0920,                                 !- Year Escalation 29
  1.0950;                                 !- Year Escalation 30

Building,
  ComStock DOE Ref Pre-1980|LargeOffice,  !- Name
  270,                                    !- North Axis {deg}
  City,                                   !- Terrain
  ,                                       !- Loads Convergence Tolerance Value {W}
  ,                                       !- Temperature Convergence Tolerance Value {deltaC}
  ,                                       !- Solar Distribution
  ,                                       !- Maximum Number of Warmup Days
  ;                                       !- Minimum Number of Warmup Days

Zone,
  Zone Office OfficeLarge Data Center A  - Story Ground, !- Name
  -0,                                     !- Direction of Relative North {deg}
  7.32041637475061,                       !- X Origin {m}
  -11.5756109657663,                      !- Y Origin {m}
  0,                                      !- Z Origin {m}
  ,                                       !- Type
  1,                                      !- Multiplier
  ,                                       !- Ceiling Height {m}
  ,                                       !- Volume {m3}
  ,                                       !- Floor Area {m2}
  ,                                       !- Zone Inside Convection Algorithm
  ,                                       !- Zone Outside Convection Algorithm
  Yes;                                    !- Part of Total Floor Area

Space,
  Office OfficeLarge Data Center A  - Story Ground, !- Name
  Zone Office OfficeLarge Data Center A  - Story Ground, !- Zone Name
  ,                                       !- Ceiling Height {m}
  ,                                       !- Volume {m3}
  ,                                       !- Floor Area {m2}
  Office OfficeLarge Data Center - ComStock DOE Ref Pre-1980; !- Space Type

SpaceList,
  Office OfficeLarge Data Center - ComStock DOE Ref Pre-1980, !- Name
  Office OfficeLarge Data Center A  - Story Ground, !- Space Name 1
  Office OfficeLarge Data Center B  - Story Ground, !- Space Name 2
  Office OfficeLarge Data Center C  - Story Ground; !- Space Name 3

Lights,
  Office OfficeLarge Data Center - ComStock DOE Ref Pre-1980 General Lighting, !- Name
  Office OfficeLarge Data Center - ComStock DOE Ref Pre-1980, !- Zone or ZoneList or Space or SpaceList Name
  OfficeLarge BLDG_LIGHT_SCH BPR Adjusted, !- Schedule Name
  Watts/Area,                             !- Design Level Calculation Method
  ,                                       !- Lighting Level {W}
  5.10108630484276,                       !- Watts per Zone Floor Area {W/m2}
  ,                                       !- Watts per Person {W/person}
  0,                                      !- Return Air Fraction
  0.31,                                   !- Fraction Radiant
  0.2,                                    !- Fraction Visible
  1,                                      !- Fraction Replaceable
  General;                                !- End-Use Subcategory

ScheduleTypeLimits,
  Fractional,                             !- Name
  0,                                      !- Lower Limit Value {BasedOnField A3}
  1,                                      !- Upper Limit Value {BasedOnField A3}
  Continuous;                             !- Numeric Type

Schedule:Day:Interval,
  OfficeLarge BLDG_LIGHT_SCH Wkdy Day,    !- Name
  Fractional,                             !- Schedule Type Limits Name
  Average,                                !- Interpolate to Timestep
  01:15,                                  !- Time 1 {hh:mm}
  0.500465647058823,                      !- Value Until Time 1
  01:30,                                  !- Time 2 {hh:mm}
  0.505759764705882,                      !- Value Until Time 2
  01:45,                                  !- Time 3 {hh:mm}
  0.511053882352941,                      !- Value Until Time 3
  02:00,                                  !- Time 4 {hh:mm}
  0.516348,                               !- Value Until Time 4
  02:15,                                  !- Time 5 {hh:mm}
  0.521642117647059,                      !- Value Until Time 5
  02:30,                                  !- Time 6 {hh:mm}
  0.520835294117647,                      !- Value Until Time 6
  02:45,                                  !- Time 7 {hh:mm}
  0.520028470588235,                      !- Value Until Time 7
  03:00,                                  !- Time 8 {hh:mm}
  0.519221647058824,                      !- Value Until Time 8
  03:15,                                  !- Time 9 {hh:mm}
  0.518414823529412,                      !- Value Until Time 9
  03:30,                                  !- Time 10 {hh:mm}
  0.537977647058824,                      !- Value Until Time 10
  03:45,                                  !- Time 11 {hh:mm}
  0.557540470588235,                      !- Value Until Time 11
  04:00,                                  !- Time 12 {hh:mm}
  0.577103294117647,                      !- Value Until Time 12
  04:15,                                  !- Time 13 {hh:mm}
  0.596666117647059,                      !- Value Until Time 13
  04:30,                                  !- Time 14 {hh:mm}
  0.655354588235294,                      !- Value Until Time 14
  04:45,                                  !- Time 15 {hh:mm}
  0.714043058823529,                      !- Value Until Time 15
  05:00,                                  !- Time 16 {hh:mm}
  0.772731529411765,                      !- Value Until Time 16
  05:15,                                  !- Time 17 {hh:mm}
  0.83142,                                !- Value Until Time 17
  13:45,                                  !- Time 18 {hh:mm}
  0.83142,                                !- Value Until Time 18
  14:00,                                  !- Time 19 {hh:mm}
  0.805336235294118,                      !- Value Until Time 19
  14:15,                                  !- Time 20 {hh:mm}
  0.779252470588235,                      !- Value Until Time 20
  14:30,                                  !- Time 21 {hh:mm}
  0.753168705882353,                      !- Value Until Time 21
  14:45,                                  !- Time 22 {hh:mm}
  0.72708494117647,                       !- Value Until Time 22
  15:00,                                  !- Time 23 {hh:mm}
  0.701001176470588,                      !- Value Until Time 23
  15:15,                                  !- Time 24 {hh:mm}
  0.674917411764706,                      !- Value Until Time 24
  15:30,                                  !- Time 25 {hh:mm}
  0.655354588235294,                      !- Value Until Time 25
  15:45,                                  !- Time 26 {hh:mm}
  0.635791764705882,                      !- Value Until Time 26
  16:00,                                  !- Time 27 {hh:mm}
  0.616228941176471,                      !- Value Until Time 27
  16:15,                                  !- Time 28 {hh:mm}
  0.596666117647059,                      !- Value Until Time 28
  16:45,                                  !- Time 29 {hh:mm}
  0.596666117647059,                      !- Value Until Time 29
  17:00,                                  !- Time 30 {hh:mm}
  0.591775411764706,                      !- Value Until Time 30
  17:15,                                  !- Time 31 {hh:mm}
  0.586884705882353,                      !- Value Until Time 31
  17:30,                                  !- Time 32 {hh:mm}
  0.581994,                               !- Value Until Time 32
  17:45,                                  !- Time 33 {hh:mm}
  0.577103294117647,                      !- Value Until Time 33
  18:00,                                  !- Time 34 {hh:mm}
  0.572212588235294,                      !- Value Until Time 34
  18:15,                                  !- Time 35 {hh:mm}
  0.567321882352941,                      !- Value Until Time 35
  18:30,                                  !- Time 36 {hh:mm}
  0.562431176470588,                      !- Value Until Time 36
  18:45,                                  !- Time 37 {hh:mm}
  0.557540470588235,                      !- Value Until Time 37
  19:15,                                  !- Time 38 {hh:mm}
  0.557540470588235,                      !- Value Until Time 38
  19:30,                                  !- Time 39 {hh:mm}
  0.547759058823529,                      !- Value Until Time 39
  19:45,                                  !- Time 40 {hh:mm}
  0.537977647058824,                      !- Value Until Time 40
  20:00,                                  !- Time 41 {hh:mm}
  0.528196235294118,                      !- Value Until Time 41
  20:15,                                  !- Time 42 {hh:mm}
  0.518414823529412,                      !- Value Until Time 42
  20:30,                                  !- Time 43 {hh:mm}
  0.513524117647059,                      !- Value Until Time 43
  20:45,                                  !- Time 44 {hh:mm}
  0.508633411764706,                      !- Value Until Time 44
  21:00,                                  !- Time 45 {hh:mm}
  0.503742705882353,                      !- Value Until Time 45
  21:15,                                  !- Time 46 {hh:mm}
  0.498852,                               !- Value Until Time 46
  21:30,                                  !- Time 47 {hh:mm}
  0.499255411764706,                      !- Value Until Time 47
  21:45,                                  !- Time 48 {hh:mm}
  0.499658823529412,                      !- Value Until Time 48
  22:00,                                  !- Time 49 {hh:mm}
  0.500062235294118,                      !- Value Until Time 49
  22:15,                                  !- Time 50 {hh:mm}
  0.500465647058823,                      !- Value Until Time 50
  24:00,                                  !- Time 51 {hh:mm}
  0.500465647058823;                      !- Value Until Time 51

Schedule:Day:Interval,
  OfficeLarge BLDG_LIGHT_SCH Sat Day,     !- Name
  Fractional,                             !- Schedule Type Limits Name
  Average,                                !- Interpolate to Timestep
  00:15,                                  !- Time 1 {hh:mm}
  0.000571499999999996,                   !- Value Until Time 1
  00:30,                                  !- Time 2 {hh:mm}
  0.001143,                               !- Value Until Time 2
  00:45,                                  !- Time 3 {hh:mm}
  0.00171449999999999,                    !- Value Until Time 3
  01:00,                                  !- Time 4 {hh:mm}
  0.002286,                               !- Value Until Time 4
  01:15,                                  !- Time 5 {hh:mm}
  0.00285750000000001,                    !- Value Until Time 5
  01:30,                                  !- Time 6 {hh:mm}
  0.00342899999999999,                    !- Value Until Time 6
  01:45,                                  !- Time 7 {hh:mm}
  0.004572,                               !- Value Until Time 7
  02:00,                                  !- Time 8 {hh:mm}
  0.010929,                               !- Value Until Time 8
  02:15,                                  !- Time 9 {hh:mm}
  0.017286,                               !- Value Until Time 9
  02:30,                                  !- Time 10 {hh:mm}
  0.023643,                               !- Value Until Time 10
  02:45,                                  !- Time 11 {hh:mm}
  0.03,                                   !- Value Until Time 11
  03:00,                                  !- Time 12 {hh:mm}
  0.036357,                               !- Value Until Time 12
  03:15,                                  !- Time 13 {hh:mm}
  0.042714,                               !- Value Until Time 13
  03:30,                                  !- Time 14 {hh:mm}
  0.049071,                               !- Value Until Time 14
  03:45,                                  !- Time 15 {hh:mm}
  0.055428,                               !- Value Until Time 15
  04:00,                                  !- Time 16 {hh:mm}
  0.083142,                               !- Value Until Time 16
  04:15,                                  !- Time 17 {hh:mm}
  0.110856,                               !- Value Until Time 17
  04:30,                                  !- Time 18 {hh:mm}
  0.13857,                                !- Value Until Time 18
  04:45,                                  !- Time 19 {hh:mm}
  0.166284,                               !- Value Until Time 19
  05:00,                                  !- Time 20 {hh:mm}
  0.193998,                               !- Value Until Time 20
  05:15,                                  !- Time 21 {hh:mm}
  0.221712,                               !- Value Until Time 21
  05:30,                                  !- Time 22 {hh:mm}
  0.249426,                               !- Value Until Time 22
  05:45,                                  !- Time 23 {hh:mm}
  0.27714,                                !- Value Until Time 23
  11:22,                                  !- Time 24 {hh:mm}
  0.27714,                                !- Value Until Time 24
  11:37,                                  !- Time 25 {hh:mm}
  0.272320173913044,                      !- Value Until Time 25
  11:52,                                  !- Time 26 {hh:mm}
  0.267500347826087,                      !- Value Until Time 26
  12:07,                                  !- Time 27 {hh:mm}
  0.262680521739131,                      !- Value Until Time 27
  12:22,                                  !- Time 28 {hh:mm}
  0.257860695652174,                      !- Value Until Time 28
  12:37,                                  !- Time 29 {hh:mm}
  0.253040869565218,                      !- Value Until Time 29
  12:52,                                  !- Time 30 {hh:mm}
  0.24822104347826,                       !- Value Until Time 30
  13:07,                                  !- Time 31 {hh:mm}
  0.243401217391304,                      !- Value Until Time 31
  13:22,                                  !- Time 32 {hh:mm}
  0.238581391304348,                      !- Value Until Time 32
  13:37,                                  !- Time 33 {hh:mm}
  0.233761565217391,                      !- Value Until Time 33
  13:52,                                  !- Time 34 {hh:mm}
  0.228941739130435,                      !- Value Until Time 34
  14:07,                                  !- Time 35 {hh:mm}
  0.224121913043478,                      !- Value Until Time 35
  14:22,                                  !- Time 36 {hh:mm}
  0.219302086956522,                      !- Value Until Time 36
  14:37,                                  !- Time 37 {hh:mm}
  0.214482260869565,                      !- Value Until Time 37
  14:52,                                  !- Time 38 {hh:mm}
  0.209662434782609,                      !- Value Until Time 38
  15:07,                                  !- Time 39 {hh:mm}
  0.204842608695653,                      !- Value Until Time 39
  15:22,                                  !- Time 40 {hh:mm}
  0.200022782608696,                      !- Value Until Time 40
  15:37,                                  !- Time 41 {hh:mm}
  0.19520295652174,                       !- Value Until Time 41
  15:52,                                  !- Time 42 {hh:mm}
  0.190383130434782,                      !- Value Until Time 42
  16:07,                                  !- Time 43 {hh:mm}
  0.185563304347826,                      !- Value Until Time 43
  16:22,                                  !- Time 44 {hh:mm}
  0.180743478260869,                      !- Value Until Time 44
  16:37,                                  !- Time 45 {hh:mm}
  0.175923652173913,                      !- Value Until Time 45
  16:52,                                  !- Time 46 {hh:mm}
  0.171103826086956,                      !- Value Until Time 46
  17:07,                                  !- Time 47 {hh:mm}
  0.166284,                               !- Value Until Time 47
  17:22,                                  !- Time 48 {hh:mm}
  0.161464173913044,                      !- Value Until Time 48
  17:37,                                  !- Time 49 {hh:mm}
  0.156644347826087,                      !- Value Until Time 49
  17:52,                                  !- Time 50 {hh:mm}
  0.151824521739131,                      !- Value Until Time 50
  18:07,                                  !- Time 51 {hh:mm}
  0.147004695652174,                      !- Value Until Time 51
  18:22,                                  !- Time 52 {hh:mm}
  0.142184869565218,                      !- Value Until Time 52
  18:37,                                  !- Time 53 {hh:mm}
  0.13736504347826,                       !- Value Until Time 53
  18:52,                                  !- Time 54 {hh:mm}
  0.132545217391304,                      !- Value Until Time 54
  19:07,                                  !- Time 55 {hh:mm}
  0.127725391304348,                      !- Value Until Time 55
  19:22,                                  !- Time 56 {hh:mm}
  0.122905565217391,                      !- Value Until Time 56
  19:37,                                  !- Time 57 {hh:mm}
  0.118085739130435,                      !- Value Until Time 57
  19:52,                                  !- Time 58 {hh:mm}
  0.113265913043478,                      !- Value Until Time 58
  20:00,                                  !- Time 59 {hh:mm}
  0.110856,                               !- Value Until Time 59
  22:00,                                  !- Time 60 {hh:mm}
  0.110856,                               !- Value Until Time 60
  22:15,                                  !- Time 61 {hh:mm}
  0.096999,                               !- Value Until Time 61
  22:30,                                  !- Time 62 {hh:mm}
  0.083142,                               !- Value Until Time 62
  22:45,                                  !- Time 63 {hh:mm}
  0.069285,                               !- Value Until Time 63
  23:00,                                  !- Time 64 {hh:mm}