
OS:Version,
  {a876f88e-5af6-42fa-80e6-f325d363a4f2}, !- Handle
  2.9.1;                                  !- Version Identifier

OS:Facility,
  {c412d3c0-bbeb-4b46-817b-db585d5c944e}; !- Handle

OS:Site,
  {a985d088-4989-4a97-830e-9b4b0392536c}, !- Handle
  Youngstown Muni_OH_USA,                 !- Name
  41.25,                                  !- Latitude {deg}
  -80.67,                                 !- Longitude {deg}
  -5,                                     !- Time Zone {hr}
  362,                                    !- Elevation {m}
  City;                                   !- Terrain

OS:SimulationControl,
  {9bb6639c-1a49-4926-ba14-fb4b6600d7c6}, !- Handle
  ,                                       !- Do Zone Sizing Calculation
  ,                                       !- Do System Sizing Calculation
  ,                                       !- Do Plant Sizing Calculation
  No,                                     !- Run Simulation for Sizing Periods
  Yes;                                    !- Run Simulation for Weather File Run Periods

OS:Sizing:Parameters,
  {6570ce32-1f0a-42d1-a760-3a3aceec0a18}, !- Handle
  1.25,                                   !- Heating Sizing Factor
  1.15;                                   !- Cooling Sizing Factor

OS:Timestep,
  {1239aac1-4173-4c5e-bea5-065673e25104}, !- Handle
  4;                                      !- Number of Timesteps per Hour

OS:ShadowCalculation,
  {63a1265c-add9-4421-87ab-df43f4b80bb0}, !- Handle
  20,                                     !- Calculation Frequency
  15000;                                  !- Maximum Figures in Shadow Overlap Calculations

OS:HeatBalanceAlgorithm,
  {a7572130-28ce-4a1f-8e77-cb103317b6c9}, !- Handle
  ConductionTransferFunction,             !- Algorithm
  200;                                    !- Surface Temperature Upper Limit {C}

OS:RunPeriod,
  {3f95e58f-1db1-48f1-b9bf-e96788b9dbe7}, !- Handle
  Run Period 1,                           !- Name
  1,                                      !- Begin Month
  1,                                      !- Begin Day of Month
  12,                                     !- End Month
  31,                                     !- End Day of Month
  ,                                       !- Use Weather File Holidays and Special Days
  ,                                       !- Use Weather File Daylight Saving Period
  ,                                       !- Apply Weekend Holiday Rule
  ,                                       !- Use Weather File Rain Indicators
  ,                                       !- Use Weather File Snow Indicators
  ;                                       !- Number of Times Runperiod to be Repeated

OS:LifeCycleCost:Parameters,
  {dcf53ff0-1953-48cb-8661-6c012c7a139c}, !- Handle
  ,                                       !- Analysis Type
  ,                                       !- Discounting Convention
  ,                                       !- Inflation Approach
  ,                                       !- Real Discount Rate
  ,                                       !- Nominal Discount Rate
  ,                                       !- Inflation
  ,                                       !- Base Date Month
  ,                                       !- Base Date Year
  ,                                       !- Service Date Month
  ,                                       !- Service Date Year
  ;                                       !- Length of Study Period in Years

OS:WeatherFile,
  {ae8006bb-faa8-45ed-be06-5fe9200e0cbf}, !- Handle
  Youngstown Muni,                        !- City
  OH,                                     !- State Province Region
  USA,                                    !- Country
  customized weather file,                !- Data Source
  725250,                                 !- WMO Number
  41.25,                                  !- Latitude {deg}
  -80.67,                                 !- Longitude {deg}
  -5,                                     !- Time Zone {hr}
  362,                                    !- Elevation {m}
  file:////weather/G3900990.epw,          !- Url
  226BE93E;                               !- Checksum

OS:Site:WaterMainsTemperature,
  {c016a215-7f2d-4af6-8549-35dfe3ce44e3}, !- Handle
  Correlation,                            !- Calculation Method
  ,                                       !- Temperature Schedule Name
  10.4616666666667,                       !- Annual Average Outdoor Air Temperature {C}
  26.79;                                  !- Maximum Difference In Monthly Average Outdoor Air Temperatures {deltaC}

OS:SizingPeriod:DesignDay,
  {75314541-9558-4d0e-b2b5-70d856453403}, !- Handle
  Youngstown Muni Ann Clg .4% Condns DB=>MWB 1, !- Name
  31.4,                                   !- Maximum Dry-Bulb Temperature {C}
  11.5,                                   !- Daily Dry-Bulb Temperature Range {deltaC}
  22.5,                                   !- Humidity Indicating Conditions at Maximum Dry-Bulb
  97051,                                  !- Barometric Pressure {Pa}
  4.3,                                    !- Wind Speed {m/s}
  230,                                    !- Wind Direction {deg}
  0,                                      !- Sky Clearness
  0,                                      !- Rain Indicator
  0,                                      !- Snow Indicator
  21,                                     !- Day of Month
  7,                                      !- Month
  SummerDesignDay,                        !- Day Type
  0,                                      !- Daylight Saving Time Indicator
  Wetbulb,                                !- Humidity Indicating Type
  ,                                       !- Humidity Indicating Day Schedule Name
  DefaultMultipliers,                     !- Dry-Bulb Temperature Range Modifier Type
  ,                                       !- Dry-Bulb Temperature Range Modifier Schedule Name
  ASHRAETau,                              !- Solar Model Indicator
  ,                                       !- Beam Solar Day Schedule Name
  ,                                       !- Diffuse Solar Day Schedule Name
  0.424,                                  !- ASHRAE Taub {dimensionless}
  2.17;                                   !- ASHRAE Taud {dimensionless}

OS:SizingPeriod:DesignDay,
  {d6c615ed-bf3b-4ac9-a4cb-f0f5c44d9755}, !- Handle
  Youngstown Muni Ann Clg .4% Condns WB=>MDB 1, !- Name
  29.1,                                   !- Maximum Dry-Bulb Temperature {C}
  11.5,                                   !- Daily Dry-Bulb Temperature Range {deltaC}
  23.9,                                   !- Humidity Indicating Conditions at Maximum Dry-Bulb
  97051,                                  !- Barometric Pressure {Pa}
  4.3,                                    !- Wind Speed {m/s}
  230,                                    !- Wind Direction {deg}
  0,                                      !- Sky Clearness
  0,                                      !- Rain Indicator
  0,                                      !- Snow Indicator
  21,                                     !- Day of Month
  7,                                      !- Month
  SummerDesignDay,                        !- Day Type
  0,                                      !- Daylight Saving Time Indicator
  Wetbulb,                                !- Humidity Indicating Type
  ,                                       !- Humidity Indicating Day Schedule Name
  DefaultMultipliers,                     !- Dry-Bulb Temperature Range Modifier Type
  ,                                       !- Dry-Bulb Temperature Range Modifier Schedule Name
  ASHRAETau,                              !- Solar Model Indicator
  ,                                       !- Beam Solar Day Schedule Name
  ,                                       !- Diffuse Solar Day Schedule Name
  0.424,                                  !- ASHRAE Taub {dimensionless}
  2.17;                                   !- ASHRAE Taud {dimensionless}

OS:SizingPeriod:DesignDay,
  {f4775e98-7d84-419c-a043-d349fd2ad8cd}, !- Handle
  Youngstown Muni Ann Clg 1% Condns DB=>MWB 1, !- Name
  29.9,                                   !- Maximum Dry-Bulb Temperature {C}
  11.5,                                   !- Daily Dry-Bulb Temperature Range {deltaC}
  21.7,                                   !- Humidity Indicating Conditions at Maximum Dry-Bulb
  97051,                                  !- Barometric Pressure {Pa}
  4.3,                                    !- Wind Speed {m/s}
  230,                                    !- Wind Direction {deg}
  0,                                      !- Sky Clearness
  0,                                      !- Rain Indicator
  0,                                      !- Snow Indicator
  21,                                     !- Day of Month
  7,                                      !- Month
  SummerDesignDay,                        !- Day Type
  0,                                      !- Daylight Saving Time Indicator
  Wetbulb,                                !- Humidity Indicating Type
  ,                                       !- Humidity Indicating Day Schedule Name
  DefaultMultipliers,                     !- Dry-Bulb Temperature Range Modifier Type
  ,                                       !- Dry-Bulb Temperature Range Modifier Schedule Name
  ASHRAETau,                              !- Solar Model Indicator
  ,                                       !- Beam Solar Day Schedule Name
  ,                                       !- Diffuse Solar Day Schedule Name
  0.424,                                  !- ASHRAE Taub {dimensionless}
  2.17;                                   !- ASHRAE Taud {dimensionless}

OS:SizingPeriod:DesignDay,
  {97345cab-bd39-4cfb-a10d-4d6a7f4fb7eb}, !- Handle
  Youngstown Muni Ann Clg 2% Condns DP=>MDB 1, !- Name
  24.6,                                   !- Maximum Dry-Bulb Temperature {C}
  11.5,                                   !- Daily Dry-Bulb Temperature Range {deltaC}
  20.8,                                   !- Humidity Indicating Conditions at Maximum Dry-Bulb
  97051,                                  !- Barometric Pressure {Pa}
  4.3,                                    !- Wind Speed {m/s}
  230,                                    !- Wind Direction {deg}
  0,                                      !- Sky Clearness
  0,                                      !- Rain Indicator
  0,                                      !- Snow Indicator
  21,                                     !- Day of Month
  7,                                      !- Month
  SummerDesignDay,                        !- Day Type
  0,                                      !- Daylight Saving Time Indicator
  Dewpoint,                               !- Humidity Indicating Type
  ,                                       !- Humidity Indicating Day Schedule Name
  DefaultMultipliers,                     !- Dry-Bulb Temperature Range Modifier Type
  ,                                       !- Dry-Bulb Temperature Range Modifier Schedule Name
  ASHRAETau,                              !- Solar Model Indicator
  ,                                       !- Beam Solar Day Schedule Name
  ,                                       !- Diffuse Solar Day Schedule Name
  0.424,                                  !- ASHRAE Taub {dimensionless}
  2.17;                                   !- ASHRAE Taud {dimensionless}

OS:SizingPeriod:DesignDay,
  {4571d8e9-66ae-4686-b4fb-e4e0d7be72eb}, !- Handle
  Youngstown Muni Ann Htg 99% Condns DB 1, !- Name
  -13.4,                                  !- Maximum Dry-Bulb Temperature {C}
  0,                                      !- Daily Dry-Bulb Temperature Range {deltaC}
  -13.4,                                  !- Humidity Indicating Conditions at Maximum Dry-Bulb
  97051,                                  !- Barometric Pressure {Pa}
  4.2,                                    !- Wind Speed {m/s}
  230,                                    !- Wind Direction {deg}
  0,                                      !- Sky Clearness
  0,                                      !- Rain Indicator
  0,                                      !- Snow Indicator
  21,                                     !- Day of Month
  1,                                      !- Month
  WinterDesignDay,                        !- Day Type
  0,                                      !- Daylight Saving Time Indicator
  Wetbulb,                                !- Humidity Indicating Type
  ,                                       !- Humidity Indicating Day Schedule Name
  DefaultMultipliers,                     !- Dry-Bulb Temperature Range Modifier Type
  ,                                       !- Dry-Bulb Temperature Range Modifier Schedule Name
  ASHRAEClearSky;                         !- Solar Model Indicator

OS:SizingPeriod:DesignDay,
  {6b66653f-b4d6-453f-8234-19c913917f73}, !- Handle
  Youngstown Muni Ann Htg 99.6% Condns DB 1, !- Name
  -16.2,                                  !- Maximum Dry-Bulb Temperature {C}
  0,                                      !- Daily Dry-Bulb Temperature Range {deltaC}
  -16.2,                                  !- Humidity Indicating Conditions at Maximum Dry-Bulb
  97051,                                  !- Barometric Pressure {Pa}
  4.2,                                    !- Wind Speed {m/s}
  230,                                    !- Wind Direction {deg}
  0,                                      !- Sky Clearness
  0,                                      !- Rain Indicator
  0,                                      !- Snow Indicator
  21,                                     !- Day of Month
  1,                                      !- Month
  WinterDesignDay,                        !- Day Type
  0,                                      !- Daylight Saving Time Indicator
  Wetbulb,                                !- Humidity Indicating Type
  ,                                       !- Humidity Indicating Day Schedule Name
  DefaultMultipliers,                     !- Dry-Bulb Temperature Range Modifier Type
  ,                                       !- Dry-Bulb Temperature Range Modifier Schedule Name
  ASHRAEClearSky;                         !- Solar Model Indicator

OS:SizingPeriod:DesignDay,
  {fe0b3cc1-b89c-4ab7-bffb-c200fa79342f}, !- Handle
  Youngstown Muni Ann Htg Wind 99% Condns WS=>MCDB 1, !- Name
  -1.1,                                   !- Maximum Dry-Bulb Temperature {C}
  0,                                      !- Daily Dry-Bulb Temperature Range {deltaC}
  -1.1,                                   !- Humidity Indicating Conditions at Maximum Dry-Bulb
  97051,                                  !- Barometric Pressure {Pa}
  10.6,                                   !- Wind Speed {m/s}
  230,                                    !- Wind Direction {deg}
  0,                                      !- Sky Clearness
  0,                                      !- Rain Indicator
  0,                                      !- Snow Indicator
  21,                                     !- Day of Month
  1,                                      !- Month
  WinterDesignDay,                        !- Day Type
  0,                                      !- Daylight Saving Time Indicator
  Wetbulb,                                !- Humidity Indicating Type
  ,                                       !- Humidity Indicating Day Schedule Name
  DefaultMultipliers,                     !- Dry-Bulb Temperature Range Modifier Type
  ,                                       !- Dry-Bulb Temperature Range Modifier Schedule Name
  ASHRAEClearSky;                         !- Solar Model Indicator

OS:SizingPeriod:DesignDay,
  {cde789c9-97fd-40d2-9642-bbb25addf69b}, !- Handle
  Youngstown Muni April .4% Condns DB=>MCWB 1, !- Name
  28.2,                                   !- Maximum Dry-Bulb Temperature {C}
  11.4,                                   !- Daily Dry-Bulb Temperature Range {deltaC}
  16.9,                                   !- Humidity Indicating Conditions at Maximum Dry-Bulb
  97051,                                  !- Barometric Pressure {Pa}
  4.3,                                    !- Wind Speed {m/s}
  230,                                    !- Wind Direction {deg}
  0,                                      !- Sky Clearness
  0,                                      !- Rain Indicator
  0,                                      !- Snow Indicator
  21,                                     !- Day of Month
  4,                                      !- Month
  SummerDesignDay,                        !- Day Type
  0,                                      !- Daylight Saving Time Indicator
  Wetbulb,                                !- Humidity Indicating Type
  ,                                       !- Humidity Indicating Day Schedule Name
  DefaultMultipliers,                     !- Dry-Bulb Temperature Range Modifier Type
  ,                                       !- Dry-Bulb Temperature Range Modifier Schedule Name
  ASHRAETau,                              !- Solar Model Indicator
  ,                                       !- Beam Solar Day Schedule Name
  ,                                       !- Diffuse Solar Day Schedule Name
  0.392,                                  !- ASHRAE Taub {dimensionless}
  2.247;                                  !- ASHRAE Taud {dimensionless}

OS:SizingPeriod:DesignDay,
  {941b5f3b-65a0-4caa-a0de-5c2cc3a1f262}, !- Handle
  Youngstown Muni April .4% Condns WB=>MCDB 1, !- Name
  25.1,                                   !- Maximum Dry-Bulb Temperature {C}
  11.4,                                   !- Daily Dry-Bulb Temperature Range {deltaC}
  18.6,                                   !- Humidity Indicating Conditions at Maximum Dry-Bulb
  97051,                                  !- Barometric Pressure {Pa}
  4.3,                                    !- Wind Speed {m/s}
  230,                                    !- Wind Direction {deg}
  0,                                      !- Sky Clearness
  0,                                      !- Rain Indicator
  0,                                      !- Snow Indicator
  21,                                     !- Day of Month
  4,                                      !- Month
  SummerDesignDay,                        !- Day Type
  0,                                      !- Daylight Saving Time Indicator
  Wetbulb,                                !- Humidity Indicating Type
  ,                                       !- Humidity Indicating Day Schedule Name
  DefaultMultipliers,                     !- Dry-Bulb Temperature Range Modifier Type
  ,                                       !- Dry-Bulb Temperature Range Modifier Schedule Name
  ASHRAETau,                              !- Solar Model Indicator
  ,                                       !- Beam Solar Day Schedule Name
  ,                                       !- Diffuse Solar Day Schedule Name
  0.392,                                  !- ASHRAE Taub {dimensionless}
  2.247;                                  !- ASHRAE Taud {dimensionless}

OS:SizingPeriod:DesignDay,
  {84ddfffc-9197-4f11-946f-6c8c44055fee}, !- Handle
  Youngstown Muni August .4% Condns DB=>MCWB 1, !- Name
  32.9,                                   !- Maximum Dry-Bulb Temperature {C}
  11.4,                                   !- Daily Dry-Bulb Temperature Range {deltaC}
  23.7,                                   !- Humidity Indicating Conditions at Maximum Dry-Bulb
  97051,                                  !- Barometric Pressure {Pa}
  4.3,                                    !- Wind Speed {m/s}
  230,                                    !- Wind Direction {deg}
  0,                                      !- Sky Clearness
  0,                                      !- Rain Indicator
  0,                                      !- Snow Indicator
  21,                                     !- Day of Month
  8,                                      !- Month
  SummerDesignDay,                        !- Day Type
  0,                                      !- Daylight Saving Time Indicator
  Wetbulb,                                !- Humidity Indicating Type
  ,                                       !- Humidity Indicating Day Schedule Name
  DefaultMultipliers,                     !- Dry-Bulb Temperature Range Modifier Type
  ,                                       !- Dry-Bulb Temperature Range Modifier Schedule Name
  ASHRAETau,                              !- Solar Model Indicator
  ,                                       !- Beam Solar Day Schedule Name
  ,                                       !- Diffuse Solar Day Schedule Name
  0.41,                                   !- ASHRAE Taub {dimensionless}
  2.242;                                  !- ASHRAE Taud {dimensionless}

OS:SizingPeriod:DesignDay,
  {9f1fe429-7d4a-4307-8026-49495c5a50fa}, !- Handle
  Youngstown Muni August .4% Condns WB=>MCDB 1, !- Name
  30.7,                                   !- Maximum Dry-Bulb Temperature {C}
  11.4,                                   !- Daily Dry-Bulb Temperature Range {deltaC}
  25.1,                                   !- Humidity Indicating Conditions at Maximum Dry-Bulb
  97051,                                  !- Barometric Pressure {Pa}
  4.3,                                    !- Wind Speed {m/s}
  230,                                    !- Wind Direction {deg}
  0,                                      !- Sky Clearness
  0,                                      !- Rain Indicator
  0,                                      !- Snow Indicator
  21,                                     !- Day of Month
  8,                                      !- Month
  SummerDesignDay,                        !- Day Type
  0,                                      !- Daylight Saving Time Indicator
  Wetbulb,                                !- Humidity Indicating Type
  ,                                       !- Humidity Indicating Day Schedule Name
  DefaultMultipliers,                     !- Dry-Bulb Temperature Range Modifier Type
  ,                                       !- Dry-Bulb Temperature Range Modifier Schedule Name
  ASHRAETau,                              !- Solar Model Indicator
  ,                                       !- Beam Solar Day Schedule Name
  ,                                       !- Diffuse Solar Day Schedule Name
  0.41,                                   !- ASHRAE Taub {dimensionless}
  2.242;                                  !- ASHRAE Taud {dimensionless}

OS:SizingPeriod:DesignDay,
  {b8b2a489-2e07-4217-ada3-fb38e362cab6}, !- Handle
  Youngstown Muni December .4% Condns DB=>MCWB 1, !- Name
  15.8,                                   !- Maximum Dry-Bulb Temperature {C}
  6.8,                                    !- Daily Dry-Bulb Temperature Range {deltaC}
  12.7,                                   !- Humidity Indicating Conditions at Maximum Dry-Bulb
  97051,                                  !- Barometric Pressure {Pa}
  4.3,                                    !- Wind Speed {m/s}
  230,                                    !- Wind Direction {deg}
  0,                                      !- Sky Clearness
  0,                                      !- Rain Indicator
  0,                                      !- Snow Indicator
  21,                                     !- Day of Month
  12,                                     !- Month
  SummerDesignDay,                        !- Day Type
  0,                                      !- Daylight Saving Time Indicator
  Wetbulb,                                !- Humidity Indicating Type
  ,                                       !- Humidity Indicating Day Schedule Name
  DefaultMultipliers,                     !- Dry-Bulb Temperature Range Modifier Type
  ,                                       !- Dry-Bulb Temperature Range Modifier Schedule Name
  ASHRAETau,                              !- Solar Model Indicator
  ,                                       !- Beam Solar Day Schedule Name
  ,                                       !- Diffuse Solar Day Schedule Name
  0.292,                                  !- ASHRAE Taub {dimensionless}
  2.578;                                  !- ASHRAE Taud {dimensionless}

OS:SizingPeriod:DesignDay,
  {2068b0a1-4d5e-48d1-82e2-b05393876076}, !- Handle
  Youngstown Muni December .4% Condns WB=>MCDB 1, !- Name
  14.9,                                   !- Maximum Dry-Bulb Temperature {C}
  6.8,                                    !- Daily Dry-Bulb Temperature Range {deltaC}
  13.5,                                   !- Humidity Indicating Conditions at Maximum Dry-Bulb
  97051,                                  !- Barometric Pressure {Pa}
  4.3,                                    !- Wind Speed {m/s}
  230,                                    !- Wind Direction {deg}
  0,                                      !- Sky Clearness
  0,                                      !- Rain Indicator
  0,                                      !- Snow Indicator
  21,                                     !- Day of Month
  12,                                     !- Month
  SummerDesignDay,                        !- Day Type
  0,                                      !- Daylight Saving Time Indicator
  Wetbulb,                                !- Humidity Indicating Type
  ,                                       !- Humidity Indicating Day Schedule Name
  DefaultMultipliers,                     !- Dry-Bulb Temperature Range Modifier Type
  ,                                       !- Dry-Bulb Temperature Range Modifier Schedule Name
  ASHRAETau,                              !- Solar Model Indicator
  ,                                       !- Beam Solar Day Schedule Name
  ,                                       !- Diffuse Solar Day Schedule Name
  0.292,                                  !- ASHRAE Taub {dimensionless}
  2.578;                                  !- ASHRAE Taud {dimensionless}

OS:SizingPeriod:DesignDay,
  {f01c4cd0-280f-473c-a617-4fadcb89d372}, !- Handle
  Youngstown Muni February .4% Condns DB=>MCWB 1, !- Name
  16.2,                                   !- Maximum Dry-Bulb Temperature {C}
  8.3,                                    !- Daily Dry-Bulb Temperature Range {deltaC}
  11,                                     !- Humidity Indicating Conditions at Maximum Dry-Bulb
  97051,                                  !- Barometric Pressure {Pa}
  4.3,                                    !- Wind Speed {m/s}
  230,                                    !- Wind Direction {deg}
  0,                                      !- Sky Clearness
  0,                                      !- Rain Indicator
  0,                                      !- Snow Indicator
  21,                                     !- Day of Month
  2,                                      !- Month
  SummerDesignDay,                        !- Day Type
  0,                                      !- Daylight Saving Time Indicator
  Wetbulb,                                !- Humidity Indicating Type
  ,                                       !- Humidity Indicating Day Schedule Name
  DefaultMultipliers,                     !- Dry-Bulb Temperature Range Modifier Type
  ,                                       !- Dry-Bulb Temperature Range Modifier Schedule Name
  ASHRAETau,                              !- Solar Model Indicator
  ,                                       !- Beam Solar Day Schedule Name
  ,                                       !- Diffuse Solar Day Schedule Name
  0.314,                                  !- ASHRAE Taub {dimensionless}
  2.418;                                  !- ASHRAE Taud {dimensionless}

OS:SizingPeriod:DesignDay,
  {aae77c2a-d0f3-449b-af2a-0de4908d4c5c}, !- Handle
  Youngstown Muni February .4% Condns WB=>MCDB 1, !- Name
  15.5,                                   !- Maximum Dry-Bulb Temperature {C}
  8.3,                                    !- Daily Dry-Bulb Temperature Range {deltaC}
  12.8,                                   !- Humidity Indicating Conditions at Maximum Dry-Bulb
  97051,                                  !- Barometric Pressure {Pa}
  4.3,                                    !- Wind Speed {m/s}
  230,                                    !- Wind Direction {deg}
  0,                                      !- Sky Clearness
  0,                                      !- Rain Indicator
  0,                                      !- Snow Indicator
  21,                                     !- Day of Month
  2,                                      !- Month
  SummerDesignDay,                        !- Day Type
  0,                                      !- Daylight Saving Time Indicator
  Wetbulb,                                !- Humidity Indicating Type
  ,                                       !- Humidity Indicating Day Schedule Name
  DefaultMultipliers,                     !- Dry-Bulb Temperature Range Modifier Type
  ,                                       !- Dry-Bulb Temperature Range Modifier Schedule Name
  ASHRAETau,                              !- Solar Model Indicator
  ,                                       !- Beam Solar Day Schedule Name
  ,                                       !- Diffuse Solar Day Schedule Name
  0.314,                                  !- ASHRAE Taub {dimensionless}
  2.418;                                  !- ASHRAE Taud {dimensionless}

OS:SizingPeriod:DesignDay,
  {2aaa6bea-639b-4006-b90d-9326a24f02a9}, !- Handle
  Youngstown Muni January .4% Condns DB=>MCWB 1, !- Name
  16,                                     !- Maximum Dry-Bulb Temperature {C}
  7.4,                                    !- Daily Dry-Bulb Temperature Range {deltaC}
  12.6,                                   !- Humidity Indicating Conditions at Maximum Dry-Bulb
  97051,                                  !- Barometric Pressure {Pa}
  4.3,                                    !- Wind Speed {m/s}
  230,                                    !- Wind Direction {deg}