
OS:Version,
  {6a5ff034-0a8f-4b3d-903e-c541f8048ebc}, !- Handle
  2.7.1;                                  !- Version Identifier

OS:BuildingStory,
  {46888037-0eeb-45e1-996e-2afd2eabe3bd}, !- Handle
  EL1 Ground Flr,                         !- Name
  ,                                       !- Nominal Z Coordinate {m}
  ,                                       !- Nominal Floor to Floor Height {m}
  ,                                       !- Default Construction Set Name
  ,                                       !- Default Schedule Set Name
  ;                                       !- Group Rendering Name

OS:BuildingStory,
  {89a19fc5-7db4-486b-899f-7df59e2cf272}, !- Handle
  EL1 Top Flr,                            !- Name
  ,                                       !- Nominal Z Coordinate {m}
  ,                                       !- Nominal Floor to Floor Height {m}
  ,                                       !- Default Construction Set Name
  ,                                       !- Default Schedule Set Name
  ;                                       !- Group Rendering Name

OS:Space,
  {b38d781d-e78d-45b5-bf9c-61ccf246f842}, !- Handle
  EL1 SSE Perim Spc (G.SSE1),             !- Name
  {21357796-90d9-4a63-968f-227f49d998a0}, !- Space Type Name
  ,                                       !- Default Construction Set Name
  ,                                       !- Default Schedule Set Name
  -0,                                     !- Direction of Relative North {deg}
  0,                                      !- X Origin {m}
  0,                                      !- Y Origin {m}
  0,                                      !- Z Origin {m}
  {46888037-0eeb-45e1-996e-2afd2eabe3bd}, !- Building Story Name
  {d0a7616e-e85c-4f57-9325-b5d8dbc1b43c}; !- Thermal Zone Name

OS:Space,
  {e46255bf-34d3-4e04-a3a3-a5341953f5f3}, !- Handle
  EL1 East Perim Spc (G.E2),              !- Name
  {21357796-90d9-4a63-968f-227f49d998a0}, !- Space Type Name
  ,                                       !- Default Construction Set Name
  ,                                       !- Default Schedule Set Name
  -0,                                     !- Direction of Relative North {deg}
  0,                                      !- X Origin {m}
  0,                                      !- Y Origin {m}
  0,                                      !- Z Origin {m}
  {46888037-0eeb-45e1-996e-2afd2eabe3bd}, !- Building Story Name
  {716eb558-1284-4863-816d-5d67a8fb06d4}; !- Thermal Zone Name

OS:Space,
  {67ff3960-7fab-4eff-a2eb-7d1576862c4c}, !- Handle
  EL1 East Perim Spc (G.E3),              !- Name
  {1a9aa0ec-bc33-49ff-87d1-67b6f2705b3f}, !- Space Type Name
  ,                                       !- Default Construction Set Name
  ,                                       !- Default Schedule Set Name
  -0,                                     !- Direction of Relative North {deg}
  0,                                      !- X Origin {m}
  0,                                      !- Y Origin {m}
  0,                                      !- Z Origin {m}
  {46888037-0eeb-45e1-996e-2afd2eabe3bd}, !- Building Story Name
  {713900d0-fc21-46d9-96f0-16051d3f127f}; !- Thermal Zone Name

OS:Space,
  {531cf30e-d734-4ece-93c4-a9198a550f92}, !- Handle
  EL1 East Perim Spc (G.E4),              !- Name
  {21357796-90d9-4a63-968f-227f49d998a0}, !- Space Type Name
  ,                                       !- Default Construction Set Name
  ,                                       !- Default Schedule Set Name
  -0,                                     !- Direction of Relative North {deg}
  0,                                      !- X Origin {m}
  0,                                      !- Y Origin {m}
  0,                                      !- Z Origin {m}
  {46888037-0eeb-45e1-996e-2afd2eabe3bd}, !- Building Story Name
  {de1e76a9-d184-4c82-8e48-b37d961586c7}; !- Thermal Zone Name

OS:Space,
  {7de29e8a-fd3d-4813-8593-745ae806e4c8}, !- Handle
  EL1 East Perim Spc (G.E5),              !- Name
  {1a9aa0ec-bc33-49ff-87d1-67b6f2705b3f}, !- Space Type Name
  ,                                       !- Default Construction Set Name
  ,                                       !- Default Schedule Set Name
  -0,                                     !- Direction of Relative North {deg}
  0,                                      !- X Origin {m}
  0,                                      !- Y Origin {m}
  0,                                      !- Z Origin {m}
  {46888037-0eeb-45e1-996e-2afd2eabe3bd}, !- Building Story Name
  {d71180c7-a8b3-454d-b60b-823e0393297d}; !- Thermal Zone Name

OS:Space,
  {6e6accb2-e118-40d7-9eab-7391b540e101}, !- Handle
  EL1 NNE Perim Spc (G.NNE6),             !- Name
  {21357796-90d9-4a63-968f-227f49d998a0}, !- Space Type Name
  ,                                       !- Default Construction Set Name
  ,                                       !- Default Schedule Set Name
  -0,                                     !- Direction of Relative North {deg}
  0,                                      !- X Origin {m}
  0,                                      !- Y Origin {m}
  0,                                      !- Z Origin {m}
  {46888037-0eeb-45e1-996e-2afd2eabe3bd}, !- Building Story Name
  {39f65d97-b6b5-4835-bd4f-a5f1497b0fe7}; !- Thermal Zone Name

OS:Space,
  {4bd8a35e-77ec-44be-89f9-0113174005f2}, !- Handle
  EL1 SSW Perim Spc (G.SSW7),             !- Name
  {1a9aa0ec-bc33-49ff-87d1-67b6f2705b3f}, !- Space Type Name
  ,                                       !- Default Construction Set Name
  ,                                       !- Default Schedule Set Name
  -0,                                     !- Direction of Relative North {deg}
  0,                                      !- X Origin {m}
  0,                                      !- Y Origin {m}
  0,                                      !- Z Origin {m}
  {46888037-0eeb-45e1-996e-2afd2eabe3bd}, !- Building Story Name
  {a9ae8958-4c27-44b4-b6c8-a64dc8bf3c86}; !- Thermal Zone Name

OS:Space,
  {193473c5-7b57-46a6-8562-48ca747ae9be}, !- Handle
  EL1 West Perim Spc (G.W8),              !- Name
  {21357796-90d9-4a63-968f-227f49d998a0}, !- Space Type Name
  ,                                       !- Default Construction Set Name
  ,                                       !- Default Schedule Set Name
  -0,                                     !- Direction of Relative North {deg}
  0,                                      !- X Origin {m}
  0,                                      !- Y Origin {m}
  0,                                      !- Z Origin {m}
  {46888037-0eeb-45e1-996e-2afd2eabe3bd}, !- Building Story Name
  {f229987f-fa4a-4072-9a21-cc091ba7b650}; !- Thermal Zone Name

OS:Space,
  {a55922da-4a94-42d4-80c5-313de662024c}, !- Handle
  EL1 West Perim Spc (G.W9),              !- Name
  {1a9aa0ec-bc33-49ff-87d1-67b6f2705b3f}, !- Space Type Name
  ,                                       !- Default Construction Set Name
  ,                                       !- Default Schedule Set Name
  -0,                                     !- Direction of Relative North {deg}
  0,                                      !- X Origin {m}
  0,                                      !- Y Origin {m}
  0,                                      !- Z Origin {m}
  {46888037-0eeb-45e1-996e-2afd2eabe3bd}, !- Building Story Name
  {7cbb55ab-729d-402c-8c6a-da8147beadc4}; !- Thermal Zone Name

OS:Space,
  {5a1c84d6-2c06-4f98-b0d9-90c75b611778}, !- Handle
  EL1 West Perim Spc (G.W10),             !- Name
  {21357796-90d9-4a63-968f-227f49d998a0}, !- Space Type Name
  ,                                       !- Default Construction Set Name
  ,                                       !- Default Schedule Set Name
  -0,                                     !- Direction of Relative North {deg}
  0,                                      !- X Origin {m}
  0,                                      !- Y Origin {m}
  0,                                      !- Z Origin {m}
  {46888037-0eeb-45e1-996e-2afd2eabe3bd}, !- Building Story Name
  {ff1f1726-5d40-4ab7-8aca-b6583a2f5ac6}; !- Thermal Zone Name

OS:Space,
  {ff3acf97-371c-4655-94c3-f83ca6f59908}, !- Handle
  EL1 West Perim Spc (G.W11),             !- Name
  {1a9aa0ec-bc33-49ff-87d1-67b6f2705b3f}, !- Space Type Name
  ,                                       !- Default Construction Set Name
  ,                                       !- Default Schedule Set Name
  -0,                                     !- Direction of Relative North {deg}
  0,                                      !- X Origin {m}
  0,                                      !- Y Origin {m}
  0,                                      !- Z Origin {m}
  {46888037-0eeb-45e1-996e-2afd2eabe3bd}, !- Building Story Name
  {349f5e84-43a2-4ac1-ae64-89b887290d8d}; !- Thermal Zone Name

OS:Space,
  {acdd1101-cd18-42f0-a52f-1ddace22f640}, !- Handle
  EL1 NNW Perim Spc (G.NNW12),            !- Name
  {21357796-90d9-4a63-968f-227f49d998a0}, !- Space Type Name
  ,                                       !- Default Construction Set Name
  ,                                       !- Default Schedule Set Name
  -0,                                     !- Direction of Relative North {deg}
  0,                                      !- X Origin {m}
  0,                                      !- Y Origin {m}
  0,                                      !- Z Origin {m}
  {46888037-0eeb-45e1-996e-2afd2eabe3bd}, !- Building Story Name
  {ef34dd2a-6678-4725-994b-908a3dd9bbca}; !- Thermal Zone Name

OS:Space,
  {8c9351f9-be2b-42e7-a6b6-edf23afc6c53}, !- Handle
  EL1 Core Spc (G.C13),                   !- Name
  {57d86ed9-2f68-4670-a5a6-06ce7f7cbec0}, !- Space Type Name
  ,                                       !- Default Construction Set Name
  ,                                       !- Default Schedule Set Name
  -0,                                     !- Direction of Relative North {deg}
  0,                                      !- X Origin {m}
  0,                                      !- Y Origin {m}
  0,                                      !- Z Origin {m}
  {46888037-0eeb-45e1-996e-2afd2eabe3bd}, !- Building Story Name
  {a9d99952-b590-4acf-8f42-f59e9719ed55}; !- Thermal Zone Name

OS:Space,
  {0cda0758-3233-4b28-9f52-6e974c5af81d}, !- Handle
  EL1 SSE Perim Plnm (G.SSE14),           !- Name
  {9b6f045f-da45-4774-bf25-d3630b838120}, !- Space Type Name
  ,                                       !- Default Construction Set Name
  ,                                       !- Default Schedule Set Name
  -0,                                     !- Direction of Relative North {deg}
  0,                                      !- X Origin {m}
  0,                                      !- Y Origin {m}
  0,                                      !- Z Origin {m}
  {46888037-0eeb-45e1-996e-2afd2eabe3bd}, !- Building Story Name
  {5e8e20e6-15e2-4818-bc87-7a4086dc49de}, !- Thermal Zone Name
  No;                                     !- Part of Total Floor Area

OS:Space,
  {5a886385-108d-426d-b67f-2e118a4ffbfb}, !- Handle
  EL1 East Perim Plnm (G.E15),            !- Name
  {9b6f045f-da45-4774-bf25-d3630b838120}, !- Space Type Name
  ,                                       !- Default Construction Set Name
  ,                                       !- Default Schedule Set Name
  -0,                                     !- Direction of Relative North {deg}
  0,                                      !- X Origin {m}
  0,                                      !- Y Origin {m}
  0,                                      !- Z Origin {m}
  {46888037-0eeb-45e1-996e-2afd2eabe3bd}, !- Building Story Name
  {d01a78a4-d3cf-4971-b609-57c7722d3ad5}, !- Thermal Zone Name
  No;                                     !- Part of Total Floor Area

OS:Space,
  {f3ddb71e-58bf-421a-ad8c-1d412ea7ffb3}, !- Handle
  EL1 East Perim Plnm (G.E16),            !- Name
  {9b6f045f-da45-4774-bf25-d3630b838120}, !- Space Type Name
  ,                                       !- Default Construction Set Name
  ,                                       !- Default Schedule Set Name
  -0,                                     !- Direction of Relative North {deg}
  0,                                      !- X Origin {m}
  0,                                      !- Y Origin {m}
  0,                                      !- Z Origin {m}
  {46888037-0eeb-45e1-996e-2afd2eabe3bd}, !- Building Story Name
  {60b5a220-4dea-41a5-870c-a9a51d1a6a1e}, !- Thermal Zone Name
  No;                                     !- Part of Total Floor Area

OS:Space,
  {70fbbb19-ca0f-4db2-a7a5-1ec8776e5eec}, !- Handle
  EL1 East Perim Plnm (G.E17),            !- Name
  {9b6f045f-da45-4774-bf25-d3630b838120}, !- Space Type Name
  ,                                       !- Default Construction Set Name
  ,                                       !- Default Schedule Set Name
  -0,                                     !- Direction of Relative North {deg}
  0,                                      !- X Origin {m}
  0,                                      !- Y Origin {m}
  0,                                      !- Z Origin {m}
  {46888037-0eeb-45e1-996e-2afd2eabe3bd}, !- Building Story Name
  {3d5e6dbe-e4e3-485c-8803-8d0ce7cb9c77}, !- Thermal Zone Name
  No;                                     !- Part of Total Floor Area

OS:Space,
  {2198a647-467d-4990-a514-ce0e0300761f}, !- Handle
  EL1 East Perim Plnm (G.E18),            !- Name
  {9b6f045f-da45-4774-bf25-d3630b838120}, !- Space Type Name
  ,                                       !- Default Construction Set Name
  ,                                       !- Default Schedule Set Name
  -0,                                     !- Direction of Relative North {deg}
  0,                                      !- X Origin {m}
  0,                                      !- Y Origin {m}
  0,                                      !- Z Origin {m}
  {46888037-0eeb-45e1-996e-2afd2eabe3bd}, !- Building Story Name
  {02dabe64-c1ce-4ae1-ad92-afcbd4545627}, !- Thermal Zone Name
  No;                                     !- Part of Total Floor Area

OS:Space,
  {8b2ba622-ed54-4f5d-9313-af21a287e143}, !- Handle
  EL1 NNE Perim Plnm (G.NNE19),           !- Name
  {9b6f045f-da45-4774-bf25-d3630b838120}, !- Space Type Name
  ,                                       !- Default Construction Set Name
  ,                                       !- Default Schedule Set Name
  -0,                                     !- Direction of Relative North {deg}
  0,                                      !- X Origin {m}
  0,                                      !- Y Origin {m}
  0,                                      !- Z Origin {m}
  {46888037-0eeb-45e1-996e-2afd2eabe3bd}, !- Building Story Name
  {a07f1329-8d25-4a8c-b25a-48f6ca785b33}, !- Thermal Zone Name
  No;                                     !- Part of Total Floor Area

OS:Space,
  {792b6e6a-7335-4bf8-b1b4-e4720c95b027}, !- Handle
  EL1 SSW Perim Plnm (G.SSW20),           !- Name
  {9b6f045f-da45-4774-bf25-d3630b838120}, !- Space Type Name
  ,                                       !- Default Construction Set Name
  ,                                       !- Default Schedule Set Name
  -0,                                     !- Direction of Relative North {deg}
  0,                                      !- X Origin {m}
  0,                                      !- Y Origin {m}
  0,                                      !- Z Origin {m}
  {46888037-0eeb-45e1-996e-2afd2eabe3bd}, !- Building Story Name
  {6523750c-92f1-473b-b271-7303595bd5a7}, !- Thermal Zone Name
  No;                                     !- Part of Total Floor Area

OS:Space,
  {8615bdef-482f-4ddf-bddb-d09ca479dfc0}, !- Handle
  EL1 West Perim Plnm (G.W21),            !- Name
  {9b6f045f-da45-4774-bf25-d3630b838120}, !- Space Type Name
  ,                                       !- Default Construction Set Name
  ,                                       !- Default Schedule Set Name
  -0,                                     !- Direction of Relative North {deg}
  0,                                      !- X Origin {m}
  0,                                      !- Y Origin {m}
  0,                                      !- Z Origin {m}
  {46888037-0eeb-45e1-996e-2afd2eabe3bd}, !- Building Story Name
  {aaf491ae-dbd4-4668-971e-ebea52406f32}, !- Thermal Zone Name
  No;                                     !- Part of Total Floor Area

OS:Space,
  {598ee88a-e406-4b43-a69f-952f783c4ad2}, !- Handle
  EL1 West Perim Plnm (G.W22),            !- Name
  {9b6f045f-da45-4774-bf25-d3630b838120}, !- Space Type Name
  ,                                       !- Default Construction Set Name
  ,                                       !- Default Schedule Set Name
  -0,                                     !- Direction of Relative North {deg}
  0,                                      !- X Origin {m}
  0,                                      !- Y Origin {m}
  0,                                      !- Z Origin {m}
  {46888037-0eeb-45e1-996e-2afd2eabe3bd}, !- Building Story Name
  {1d7f232a-fbff-4b08-8a00-2f2ab8677e9f}, !- Thermal Zone Name
  No;                                     !- Part of Total Floor Area

OS:Space,
  {f986f47c-7db3-4348-8a0d-879742330ecf}, !- Handle
  EL1 West Perim Plnm (G.W23),            !- Name
  {9b6f045f-da45-4774-bf25-d3630b838120}, !- Space Type Name
  ,                                       !- Default Construction Set Name
  ,                                       !- Default Schedule Set Name
  -0,                                     !- Direction of Relative North {deg}
  0,                                      !- X Origin {m}
  0,                                      !- Y Origin {m}
  0,                                      !- Z Origin {m}
  {46888037-0eeb-45e1-996e-2afd2eabe3bd}, !- Building Story Name
  {bacff3b1-76bd-4954-ab39-73161895c8d6}, !- Thermal Zone Name
  No;                                     !- Part of Total Floor Area

OS:Space,
  {cfbb5503-3edc-4fc1-997d-bfbaf9e9f75d}, !- Handle
  EL1 West Perim Plnm (G.W24),            !- Name
  {9b6f045f-da45-4774-bf25-d3630b838120}, !- Space Type Name
  ,                                       !- Default Construction Set Name
  ,                                       !- Default Schedule Set Name
  -0,                                     !- Direction of Relative North {deg}
  0,                                      !- X Origin {m}
  0,                                      !- Y Origin {m}
  0,                                      !- Z Origin {m}
  {46888037-0eeb-45e1-996e-2afd2eabe3bd}, !- Building Story Name
  {db913cc5-1046-4df4-8e7c-2153ab2441e8}, !- Thermal Zone Name
  No;                                     !- Part of Total Floor Area

OS:Space,
  {160c9cdc-edc9-4397-82f3-d4c7ad11c859}, !- Handle
  EL1 NNW Perim Plnm (G.NNW25),           !- Name
  {9b6f045f-da45-4774-bf25-d3630b838120}, !- Space Type Name
  ,                                       !- Default Construction Set Name
  ,                                       !- Default Schedule Set Name
  -0,                                     !- Direction of Relative North {deg}
  0,                                      !- X Origin {m}
  0,                                      !- Y Origin {m}
  0,                                      !- Z Origin {m}
  {46888037-0eeb-45e1-996e-2afd2eabe3bd}, !- Building Story Name
  {82bf484c-560f-4a22-81be-b2508088da47}, !- Thermal Zone Name
  No;                                     !- Part of Total Floor Area

OS:Space,
  {50a7bbf0-93dc-4694-a4b5-21ea71eddf71}, !- Handle
  EL1 Core Plnm (G.C26),                  !- Name
  {9b6f045f-da45-4774-bf25-d3630b838120}, !- Space Type Name
  ,                                       !- Default Construction Set Name
  ,                                       !- Default Schedule Set Name
  -0,                                     !- Direction of Relative North {deg}
  0,                                      !- X Origin {m}
  0,                                      !- Y Origin {m}
  0,                                      !- Z Origin {m}
  {46888037-0eeb-45e1-996e-2afd2eabe3bd}, !- Building Story Name
  {71163a5f-8ec2-4824-83bf-5ddfb3236bd0}, !- Thermal Zone Name
  No;                                     !- Part of Total Floor Area

OS:Space,
  {a61448eb-1d11-44d5-bbde-09788c961c31}, !- Handle
  EL1 SSE Perim Spc (T.SSE27),            !- Name
  {1a9aa0ec-bc33-49ff-87d1-67b6f2705b3f}, !- Space Type Name
  ,                                       !- Default Construction Set Name
  ,                                       !- Default Schedule Set Name
  -0,                                     !- Direction of Relative North {deg}
  0,                                      !- X Origin {m}
  0,                                      !- Y Origin {m}
  0,                                      !- Z Origin {m}
  {89a19fc5-7db4-486b-899f-7df59e2cf272}, !- Building Story Name
  {308fd74a-b53f-43ba-8087-6ff78515720d}; !- Thermal Zone Name

OS:Space,
  {e8b3a5ff-2156-46a8-83bf-a36880115f40}, !- Handle
  EL1 East Perim Spc (T.E28),             !- Name
  {21357796-90d9-4a63-968f-227f49d998a0}, !- Space Type Name
  ,                                       !- Default Construction Set Name
  ,                                       !- Default Schedule Set Name
  -0,                                     !- Direction of Relative North {deg}
  0,                                      !- X Origin {m}
  0,                                      !- Y Origin {m}
  0,                                      !- Z Origin {m}
  {89a19fc5-7db4-486b-899f-7df59e2cf272}, !- Building Story Name
  {4e5bb811-17d1-43a1-9ee2-8ad9c6124060}; !- Thermal Zone Name

OS:Space,
  {3ce57d7e-2333-4326-9c22-fc75d1db154f}, !- Handle
  EL1 East Perim Spc (T.E29),             !- Name
  {1a9aa0ec-bc33-49ff-87d1-67b6f2705b3f}, !- Space Type Name
  ,                                       !- Default Construction Set Name
  ,                                       !- Default Schedule Set Name
  -0,                                     !- Direction of Relative North {deg}
  0,                                      !- X Origin {m}
  0,                                      !- Y Origin {m}
  0,                                      !- Z Origin {m}
  {89a19fc5-7db4-486b-899f-7df59e2cf272}, !- Building Story Name
  {05cda762-7b2a-4db2-bd4f-9d16d0e585ea}; !- Thermal Zone Name

OS:Space,
  {783a52cf-11d8-4e9c-8e68-59acc8c7ff28}, !- Handle
  EL1 East Perim Spc (T.E30),             !- Name
  {21357796-90d9-4a63-968f-227f49d998a0}, !- Space Type Name
  ,                                       !- Default Construction Set Name
  ,                                       !- Default Schedule Set Name
  -0,                                     !- Direction of Relative North {deg}
  0,                                      !- X Origin {m}
  0,                                      !- Y Origin {m}
  0,                                      !- Z Origin {m}
  {89a19fc5-7db4-486b-899f-7df59e2cf272}, !- Building Story Name
  {78409920-54e9-4b0d-9cbe-79344ffb05ac}; !- Thermal Zone Name

OS:Space,
  {d648ff6d-86cd-43cb-bf97-1a3b179b27a0}, !- Handle
  EL1 East Perim Spc (T.E31),             !- Name
  {1a9aa0ec-bc33-49ff-87d1-67b6f2705b3f}, !- Space Type Name
  ,                                       !- Default Construction Set Name
  ,                                       !- Default Schedule Set Name
  -0,                                     !- Direction of Relative North {deg}
  0,                                      !- X Origin {m}
  0,                                      !- Y Origin {m}
  0,                                      !- Z Origin {m}
  {89a19fc5-7db4-486b-899f-7df59e2cf272}, !- Building Story Name
  {31ea7c9e-b7be-459b-8a1d-40f5576a79d4}; !- Thermal Zone Name

OS:Space,
  {756bf898-b96d-40ed-b304-59e8066965b9}, !- Handle
  EL1 NNE Perim Spc (T.NNE32),            !- Name
  {21357796-90d9-4a63-968f-227f49d998a0}, !- Space Type Name
  ,                                       !- Default Construction Set Name
  ,                                       !- Default Schedule Set Name
  -0,                                     !- Direction of Relative North {deg}
  0,                                      !- X Origin {m}
  0,                                      !- Y Origin {m}
  0,                                      !- Z Origin {m}
  {89a19fc5-7db4-486b-899f-7df59e2cf272}, !- Building Story Name
  {0133dbd0-806e-4572-9152-310afc93104c}; !- Thermal Zone Name

OS:Space,
  {8fb3235d-51d7-44fa-8761-ef63a8ae21bf}, !- Handle
  EL1 SSW Perim Spc (T.SSW33),            !- Name
  {1a9aa0ec-bc33-49ff-87d1-67b6f2705b3f}, !- Space Type Name
  ,                                       !- Default Construction Set Name
  ,                                       !- Default Schedule Set Name
  -0,                                     !- Direction of Relative North {deg}
  0,                                      !- X Origin {m}
  0,                                      !- Y Origin {m}
  0,                                      !- Z Origin {m}
  {89a19fc5-7db4-486b-899f-7df59e2cf272}, !- Building Story Name
  {e3750af7-93d1-4378-87ad-7477338c07c0}; !- Thermal Zone Name

OS:Space,
  {366b10ea-7578-469b-919b-a8dd794bf105}, !- Handle
  EL1 West Perim Spc (T.W34),             !- Name
  {21357796-90d9-4a63-968f-227f49d998a0}, !- Space Type Name
  ,                                       !- Default Construction Set Name
  ,                                       !- Default Schedule Set Name
  -0,                                     !- Direction of Relative North {deg}
  0,                                      !- X Origin {m}
  0,                                      !- Y Origin {m}
  0,                                      !- Z Origin {m}
  {89a19fc5-7db4-486b-899f-7df59e2cf272}, !- Building Story Name
  {001727a1-fd8c-4f60-b29f-dee967deb15a}; !- Thermal Zone Name

OS:Space,
  {464d0e17-1969-4b01-8c2c-ef44e57bb7f5}, !- Handle
  EL1 West Perim Spc (T.W35),             !- Name
  {1a9aa0ec-bc33-49ff-87d1-67b6f2705b3f}, !- Space Type Name
  ,                                       !- Default Construction Set Name
  ,                                       !- Default Schedule Set Name
  -0,                                     !- Direction of Relative North {deg}
  0,                                      !- X Origin {m}
  0,                                      !- Y Origin {m}
  0,                                      !- Z Origin {m}
  {89a19fc5-7db4-486b-899f-7df59e2cf272}, !- Building Story Name
  {c428447f-e98e-4fc7-9bff-22e74d3b92e6}; !- Thermal Zone Name

OS:Space,
  {d63b3cf3-2f38-4d5c-a8cf-37a98d14a3cc}, !- Handle
  EL1 West Perim Spc (T.W36),             !- Name
  {21357796-90d9-4a63-968f-227f49d998a0}, !- Space Type Name
  ,                                       !- Default Construction Set Name
  ,                                       !- Default Schedule Set Name
  -0,                                     !- Direction of Relative North {deg}
  0,                                      !- X Origin {m}
  0,                                      !- Y Origin {m}
  0,                                      !- Z Origin {m}
  {89a19fc5-7db4-486b-899f-7df59e2cf272}, !- Building Story Name
  {5b024ed5-417c-4939-9437-548223586643}; !- Thermal Zone Name

OS:Space,
  {5db8e03c-5fb8-4fe3-90f2-1ed08a8dfed5}, !- Handle
  EL1 West Perim Spc (T.W37),             !- Name
  {1a9aa0ec-bc33-49ff-87d1-67b6f2705b3f}, !- Space Type Name
  ,                                       !- Default Construction Set Name
  ,                                       !- Default Schedule Set Name
  -0,                                     !- Direction of Relative North {deg}
  0,                                      !- X Origin {m}
  0,                                      !- Y Origin {m}
  0,                                      !- Z Origin {m}
  {89a19fc5-7db4-486b-899f-7df59e2cf272}, !- Building Story Name
  {8596c6df-8c62-4a5a-843c-a349a3b46daf}; !- Thermal Zone Name

OS:Space,
  {feb83b74-33b6-4219-914c-8531e92d82db}, !- Handle
  EL1 NNW Perim Spc (T.NNW38),            !- Name
  {21357796-90d9-4a63-968f-227f49d998a0}, !- Space Type Name
  ,                                       !- Default Construction Set Name
  ,                                       !- Default Schedule Set Name
  -0,                                     !- Direction of Relative North {deg}
  0,                                      !- X Origin {m}
  0,                                      !- Y Origin {m}
  0,                                      !- Z Origin {m}
  {89a19fc5-7db4-486b-899f-7df59e2cf272}, !- Building Story Name
  {df0fd8d1-e726-420e-a363-3dfdf0a6ce77}; !- Thermal Zone Name

OS:Space,
  {2c5f4113-fa77-4ab7-9e45-3dffabdef2b1}, !- Handle
  EL1 Core Spc (T.C39),                   !- Name
  {57d86ed9-2f68-4670-a5a6-06ce7f7cbec0}, !- Space Type Name
  ,                                       !- Default Construction Set Name
  ,                                       !- Default Schedule Set Name
  -0,                                     !- Direction of Relative North {deg}
  0,                                      !- X Origin {m}
  0,                                      !- Y Origin {m}
  0,                                      !- Z Origin {m}
  {89a19fc5-7db4-486b-899f-7df59e2cf272}, !- Building Story Name
  {d6ee3cfe-1b72-46f7-96a2-4c5422e50c7d}; !- Thermal Zone Name

OS:Space,
  {91b255a4-755a-46ee-bf0b-cd63490306fb}, !- Handle
  EL1 SSE Perim Attc (T.SSE40),           !- Name
  {9b6f045f-da45-4774-bf25-d3630b838120}, !- Space Type Name
  ,                                       !- Default Construction Set Name
  ,                                       !- Default Schedule Set Name
  -0,                                     !- Direction of Relative North {deg}
  0,                                      !- X Origin {m}
  0,                                      !- Y Origin {m}
  0,                                      !- Z Origin {m}
  {89a19fc5-7db4-486b-899f-7df59e2cf272}, !- Building Story Name