
OS:Version,
  {4286e5c5-785b-476d-9d05-e1d0f9018992}, !- Handle
  2.8.1;                                  !- Version Identifier

OS:WeatherFile,
  {9480fe8d-e277-412b-8adf-4e4fb152a718}, !- Handle
  Lake Co,                                !- City
  CO,                                     !- State Province Region
  USA,                                    !- Country
  customized weather file,                !- Data Source
  724673,                                 !- WMO Number
  39.23,                                  !- Latitude {deg}
  -106.32,                                !- Longitude {deg}
  -7,                                     !- Time Zone {hr}
  3026,                                   !- Elevation {m}
  file:////weather/USA_CO_Lake.Co.724673_2012.epw, !- Url
  226BE93E;                               !- Checksum

OS:RunPeriodControl:DaylightSavingTime,
  {b5f1a58f-caf8-4479-bcdc-ea814e6c4934}, !- Handle
  2nd Sunday in March,                    !- Start Date
  1st Sunday in November;                 !- End Date

OS:YearDescription,
  {ea9d798c-c6b1-4790-9223-288a6dbf1a18}, !- Handle
  2016,                                   !- Calendar Year
  ,                                       !- Day of Week for Start Day
  ;                                       !- Is Leap Year

OS:Timestep,
  {e67214c8-99a7-442b-9cb0-008f1f66f62a}, !- Handle
  4;                                      !- Number of Timesteps per Hour

OS:RunPeriod,
  {0f7b90d2-ecb8-46ae-b1fd-380352144484}, !- Handle
  Run Period 1,                           !- Name
  1,                                      !- Begin Month
  1,                                      !- Begin Day of Month
  12,                                     !- End Month
  30,                                     !- End Day of Month
  ,                                       !- Use Weather File Holidays and Special Days
  ,                                       !- Use Weather File Daylight Saving Period
  ,                                       !- Apply Weekend Holiday Rule
  ,                                       !- Use Weather File Rain Indicators
  ,                                       !- Use Weather File Snow Indicators
  ;                                       !- Number of Times Runperiod to be Repeated

OS:Site,
  {4b932ba3-5d9b-404f-aebc-173165f1eb21}, !- Handle
  Lake Co_CO_USA,                         !- Name
  39.23,                                  !- Latitude {deg}
  -106.32,                                !- Longitude {deg}
  -7,                                     !- Time Zone {hr}
  3026,                                   !- Elevation {m}
  City;                                   !- Terrain

OS:Site:WaterMainsTemperature,
  {b98477b1-400c-4ccc-a98b-8a5c90fbae8d}, !- Handle
  Correlation,                            !- Calculation Method
  ,                                       !- Temperature Schedule Name
  2.78333333333333,                       !- Annual Average Outdoor Air Temperature {C}
  22.4;                                   !- Maximum Difference In Monthly Average Outdoor Air Temperatures {deltaC}

OS:SizingPeriod:DesignDay,
  {2fbf31b2-d7eb-488f-aee9-f3964a58f4cf}, !- Handle
  Lake Co Ann Clg .4% Condns DB=>MWB 1,   !- Name
  23,                                     !- Maximum Dry-Bulb Temperature {C}
  16.3,                                   !- Daily Dry-Bulb Temperature Range {deltaC}
  8.8,                                    !- Humidity Indicating Conditions at Maximum Dry-Bulb
  69877,                                  !- Barometric Pressure {Pa}
  4.9,                                    !- Wind Speed {m/s}
  310,                                    !- Wind Direction {deg}
  0,                                      !- Sky Clearness
  0,                                      !- Rain Indicator
  0,                                      !- Snow Indicator
  21,                                     !- Day of Month
  7,                                      !- Month
  SummerDesignDay,                        !- Day Type
  0,                                      !- Daylight Saving Time Indicator
  Wetbulb,                                !- Humidity Indicating Type
  ,                                       !- Humidity Indicating Day Schedule Name
  DefaultMultipliers,                     !- Dry-Bulb Temperature Range Modifier Type
  ,                                       !- Dry-Bulb Temperature Range Modifier Schedule Name
  ASHRAETau,                              !- Solar Model Indicator
  ,                                       !- Beam Solar Day Schedule Name
  ,                                       !- Diffuse Solar Day Schedule Name
  0.252,                                  !- ASHRAE Taub {dimensionless}
  2.699;                                  !- ASHRAE Taud {dimensionless}

OS:SizingPeriod:DesignDay,
  {dd0eeb4a-0b52-47b3-8af3-c99085ec9381}, !- Handle
  Lake Co Ann Clg .4% Condns WB=>MDB 1,   !- Name
  18.1,                                   !- Maximum Dry-Bulb Temperature {C}
  16.3,                                   !- Daily Dry-Bulb Temperature Range {deltaC}
  11.4,                                   !- Humidity Indicating Conditions at Maximum Dry-Bulb
  69877,                                  !- Barometric Pressure {Pa}
  4.9,                                    !- Wind Speed {m/s}
  310,                                    !- Wind Direction {deg}
  0,                                      !- Sky Clearness
  0,                                      !- Rain Indicator
  0,                                      !- Snow Indicator
  21,                                     !- Day of Month
  7,                                      !- Month
  SummerDesignDay,                        !- Day Type
  0,                                      !- Daylight Saving Time Indicator
  Wetbulb,                                !- Humidity Indicating Type
  ,                                       !- Humidity Indicating Day Schedule Name
  DefaultMultipliers,                     !- Dry-Bulb Temperature Range Modifier Type
  ,                                       !- Dry-Bulb Temperature Range Modifier Schedule Name
  ASHRAETau,                              !- Solar Model Indicator
  ,                                       !- Beam Solar Day Schedule Name
  ,                                       !- Diffuse Solar Day Schedule Name
  0.252,                                  !- ASHRAE Taub {dimensionless}
  2.699;                                  !- ASHRAE Taud {dimensionless}

OS:SizingPeriod:DesignDay,
  {aa91d96a-8d04-49b1-a454-26908b6f541d}, !- Handle
  Lake Co Ann Clg 1% Condns DB=>MWB 1,    !- Name
  22.4,                                   !- Maximum Dry-Bulb Temperature {C}
  16.3,                                   !- Daily Dry-Bulb Temperature Range {deltaC}
  8.8,                                    !- Humidity Indicating Conditions at Maximum Dry-Bulb
  69877,                                  !- Barometric Pressure {Pa}
  4.9,                                    !- Wind Speed {m/s}
  310,                                    !- Wind Direction {deg}
  0,                                      !- Sky Clearness
  0,                                      !- Rain Indicator
  0,                                      !- Snow Indicator
  21,                                     !- Day of Month
  7,                                      !- Month
  SummerDesignDay,                        !- Day Type
  0,                                      !- Daylight Saving Time Indicator
  Wetbulb,                                !- Humidity Indicating Type
  ,                                       !- Humidity Indicating Day Schedule Name
  DefaultMultipliers,                     !- Dry-Bulb Temperature Range Modifier Type
  ,                                       !- Dry-Bulb Temperature Range Modifier Schedule Name
  ASHRAETau,                              !- Solar Model Indicator
  ,                                       !- Beam Solar Day Schedule Name
  ,                                       !- Diffuse Solar Day Schedule Name
  0.252,                                  !- ASHRAE Taub {dimensionless}
  2.699;                                  !- ASHRAE Taud {dimensionless}

OS:SizingPeriod:DesignDay,
  {5c17626c-ae79-4ce5-81d9-3847b501cfa5}, !- Handle
  Lake Co Ann Clg 2% Condns DP=>MDB 1,    !- Name
  11.3,                                   !- Maximum Dry-Bulb Temperature {C}
  16.3,                                   !- Daily Dry-Bulb Temperature Range {deltaC}
  7.6,                                    !- Humidity Indicating Conditions at Maximum Dry-Bulb
  69877,                                  !- Barometric Pressure {Pa}
  4.9,                                    !- Wind Speed {m/s}
  310,                                    !- Wind Direction {deg}
  0,                                      !- Sky Clearness
  0,                                      !- Rain Indicator
  0,                                      !- Snow Indicator
  21,                                     !- Day of Month
  7,                                      !- Month
  SummerDesignDay,                        !- Day Type
  0,                                      !- Daylight Saving Time Indicator
  Dewpoint,                               !- Humidity Indicating Type
  ,                                       !- Humidity Indicating Day Schedule Name
  DefaultMultipliers,                     !- Dry-Bulb Temperature Range Modifier Type
  ,                                       !- Dry-Bulb Temperature Range Modifier Schedule Name
  ASHRAETau,                              !- Solar Model Indicator
  ,                                       !- Beam Solar Day Schedule Name
  ,                                       !- Diffuse Solar Day Schedule Name
  0.252,                                  !- ASHRAE Taub {dimensionless}
  2.699;                                  !- ASHRAE Taud {dimensionless}

OS:SizingPeriod:DesignDay,
  {24dcaead-4379-494c-b10e-d1388c48ef47}, !- Handle
  Lake Co Ann Htg 99% Condns DB 1,        !- Name
  -18.9,                                  !- Maximum Dry-Bulb Temperature {C}
  0,                                      !- Daily Dry-Bulb Temperature Range {deltaC}
  -18.9,                                  !- Humidity Indicating Conditions at Maximum Dry-Bulb
  69877,                                  !- Barometric Pressure {Pa}
  3,                                      !- Wind Speed {m/s}
  40,                                     !- Wind Direction {deg}
  0,                                      !- Sky Clearness
  0,                                      !- Rain Indicator
  0,                                      !- Snow Indicator
  21,                                     !- Day of Month
  12,                                     !- Month
  WinterDesignDay,                        !- Day Type
  0,                                      !- Daylight Saving Time Indicator
  Wetbulb,                                !- Humidity Indicating Type
  ,                                       !- Humidity Indicating Day Schedule Name
  DefaultMultipliers,                     !- Dry-Bulb Temperature Range Modifier Type
  ,                                       !- Dry-Bulb Temperature Range Modifier Schedule Name
  ASHRAEClearSky;                         !- Solar Model Indicator

OS:SizingPeriod:DesignDay,
  {712afab6-5138-4c40-a672-d9cc0a2a52a7}, !- Handle
  Lake Co Ann Htg 99.6% Condns DB 1,      !- Name
  -22,                                    !- Maximum Dry-Bulb Temperature {C}
  0,                                      !- Daily Dry-Bulb Temperature Range {deltaC}
  -22,                                    !- Humidity Indicating Conditions at Maximum Dry-Bulb
  69877,                                  !- Barometric Pressure {Pa}
  3,                                      !- Wind Speed {m/s}
  40,                                     !- Wind Direction {deg}
  0,                                      !- Sky Clearness
  0,                                      !- Rain Indicator
  0,                                      !- Snow Indicator
  21,                                     !- Day of Month
  12,                                     !- Month
  WinterDesignDay,                        !- Day Type
  0,                                      !- Daylight Saving Time Indicator
  Wetbulb,                                !- Humidity Indicating Type
  ,                                       !- Humidity Indicating Day Schedule Name
  DefaultMultipliers,                     !- Dry-Bulb Temperature Range Modifier Type
  ,                                       !- Dry-Bulb Temperature Range Modifier Schedule Name
  ASHRAEClearSky;                         !- Solar Model Indicator

OS:SizingPeriod:DesignDay,
  {9ce8322b-ae47-4623-a6d1-05ec805ab3fc}, !- Handle
  Lake Co Ann Htg Wind 99% Condns WS=>MCDB 1, !- Name
  -6.8,                                   !- Maximum Dry-Bulb Temperature {C}
  0,                                      !- Daily Dry-Bulb Temperature Range {deltaC}
  -6.8,                                   !- Humidity Indicating Conditions at Maximum Dry-Bulb
  69877,                                  !- Barometric Pressure {Pa}
  9.4,                                    !- Wind Speed {m/s}
  40,                                     !- Wind Direction {deg}
  0,                                      !- Sky Clearness
  0,                                      !- Rain Indicator
  0,                                      !- Snow Indicator
  21,                                     !- Day of Month
  12,                                     !- Month
  WinterDesignDay,                        !- Day Type
  0,                                      !- Daylight Saving Time Indicator
  Wetbulb,                                !- Humidity Indicating Type
  ,                                       !- Humidity Indicating Day Schedule Name
  DefaultMultipliers,                     !- Dry-Bulb Temperature Range Modifier Type
  ,                                       !- Dry-Bulb Temperature Range Modifier Schedule Name
  ASHRAEClearSky;                         !- Solar Model Indicator

OS:SizingPeriod:DesignDay,
  {34d78a5c-8814-4e8c-88db-c2cd916777d0}, !- Handle
  Lake Co April .4% Condns DB=>MCWB 1,    !- Name
  13.9,                                   !- Maximum Dry-Bulb Temperature {C}
  11.8,                                   !- Daily Dry-Bulb Temperature Range {deltaC}
  3.1,                                    !- Humidity Indicating Conditions at Maximum Dry-Bulb
  69877,                                  !- Barometric Pressure {Pa}
  4.9,                                    !- Wind Speed {m/s}
  310,                                    !- Wind Direction {deg}
  0,                                      !- Sky Clearness
  0,                                      !- Rain Indicator
  0,                                      !- Snow Indicator
  21,                                     !- Day of Month
  4,                                      !- Month
  SummerDesignDay,                        !- Day Type
  0,                                      !- Daylight Saving Time Indicator
  Wetbulb,                                !- Humidity Indicating Type
  ,                                       !- Humidity Indicating Day Schedule Name
  DefaultMultipliers,                     !- Dry-Bulb Temperature Range Modifier Type
  ,                                       !- Dry-Bulb Temperature Range Modifier Schedule Name
  ASHRAETau,                              !- Solar Model Indicator
  ,                                       !- Beam Solar Day Schedule Name
  ,                                       !- Diffuse Solar Day Schedule Name
  0.231,                                  !- ASHRAE Taub {dimensionless}
  2.587;                                  !- ASHRAE Taud {dimensionless}

OS:SizingPeriod:DesignDay,
  {5bf59fa7-6439-4dda-941e-12fcdf8b96b6}, !- Handle
  Lake Co April .4% Condns WB=>MCDB 1,    !- Name
  12,                                     !- Maximum Dry-Bulb Temperature {C}
  11.8,                                   !- Daily Dry-Bulb Temperature Range {deltaC}
  3.9,                                    !- Humidity Indicating Conditions at Maximum Dry-Bulb
  69877,                                  !- Barometric Pressure {Pa}
  4.9,                                    !- Wind Speed {m/s}
  310,                                    !- Wind Direction {deg}
  0,                                      !- Sky Clearness
  0,                                      !- Rain Indicator
  0,                                      !- Snow Indicator
  21,                                     !- Day of Month
  4,                                      !- Month
  SummerDesignDay,                        !- Day Type
  0,                                      !- Daylight Saving Time Indicator
  Wetbulb,                                !- Humidity Indicating Type
  ,                                       !- Humidity Indicating Day Schedule Name
  DefaultMultipliers,                     !- Dry-Bulb Temperature Range Modifier Type
  ,                                       !- Dry-Bulb Temperature Range Modifier Schedule Name
  ASHRAETau,                              !- Solar Model Indicator
  ,                                       !- Beam Solar Day Schedule Name
  ,                                       !- Diffuse Solar Day Schedule Name
  0.231,                                  !- ASHRAE Taub {dimensionless}
  2.587;                                  !- ASHRAE Taud {dimensionless}

OS:SizingPeriod:DesignDay,
  {112b002f-7287-451d-98e9-9cd918a56854}, !- Handle
  Lake Co August .4% Condns DB=>MCWB 1,   !- Name
  23.8,                                   !- Maximum Dry-Bulb Temperature {C}
  14.9,                                   !- Daily Dry-Bulb Temperature Range {deltaC}
  8.7,                                    !- Humidity Indicating Conditions at Maximum Dry-Bulb
  69877,                                  !- Barometric Pressure {Pa}
  4.9,                                    !- Wind Speed {m/s}
  310,                                    !- Wind Direction {deg}
  0,                                      !- Sky Clearness
  0,                                      !- Rain Indicator
  0,                                      !- Snow Indicator
  21,                                     !- Day of Month
  8,                                      !- Month
  SummerDesignDay,                        !- Day Type
  0,                                      !- Daylight Saving Time Indicator
  Wetbulb,                                !- Humidity Indicating Type
  ,                                       !- Humidity Indicating Day Schedule Name
  DefaultMultipliers,                     !- Dry-Bulb Temperature Range Modifier Type
  ,                                       !- Dry-Bulb Temperature Range Modifier Schedule Name
  ASHRAETau,                              !- Solar Model Indicator
  ,                                       !- Beam Solar Day Schedule Name
  ,                                       !- Diffuse Solar Day Schedule Name
  0.263,                                  !- ASHRAE Taub {dimensionless}
  2.69;                                   !- ASHRAE Taud {dimensionless}

OS:SizingPeriod:DesignDay,
  {891065a1-c561-44c2-8f5e-b5ebc5d5f643}, !- Handle
  Lake Co August .4% Condns WB=>MCDB 1,   !- Name
  17.4,                                   !- Maximum Dry-Bulb Temperature {C}
  14.9,                                   !- Daily Dry-Bulb Temperature Range {deltaC}
  12.1,                                   !- Humidity Indicating Conditions at Maximum Dry-Bulb
  69877,                                  !- Barometric Pressure {Pa}
  4.9,                                    !- Wind Speed {m/s}
  310,                                    !- Wind Direction {deg}
  0,                                      !- Sky Clearness
  0,                                      !- Rain Indicator
  0,                                      !- Snow Indicator
  21,                                     !- Day of Month
  8,                                      !- Month
  SummerDesignDay,                        !- Day Type
  0,                                      !- Daylight Saving Time Indicator
  Wetbulb,                                !- Humidity Indicating Type
  ,                                       !- Humidity Indicating Day Schedule Name
  DefaultMultipliers,                     !- Dry-Bulb Temperature Range Modifier Type
  ,                                       !- Dry-Bulb Temperature Range Modifier Schedule Name
  ASHRAETau,                              !- Solar Model Indicator
  ,                                       !- Beam Solar Day Schedule Name
  ,                                       !- Diffuse Solar Day Schedule Name
  0.263,                                  !- ASHRAE Taub {dimensionless}
  2.69;                                   !- ASHRAE Taud {dimensionless}

OS:SizingPeriod:DesignDay,
  {19714291-7a13-4e86-a7ce-1f18b6d53115}, !- Handle
  Lake Co December .4% Condns DB=>MCWB 1, !- Name
  6.3,                                    !- Maximum Dry-Bulb Temperature {C}
  11,                                     !- Daily Dry-Bulb Temperature Range {deltaC}
  -1.4,                                   !- Humidity Indicating Conditions at Maximum Dry-Bulb
  69877,                                  !- Barometric Pressure {Pa}
  4.9,                                    !- Wind Speed {m/s}
  310,                                    !- Wind Direction {deg}
  0,                                      !- Sky Clearness
  0,                                      !- Rain Indicator
  0,                                      !- Snow Indicator
  21,                                     !- Day of Month
  12,                                     !- Month
  SummerDesignDay,                        !- Day Type
  0,                                      !- Daylight Saving Time Indicator
  Wetbulb,                                !- Humidity Indicating Type
  ,                                       !- Humidity Indicating Day Schedule Name
  DefaultMultipliers,                     !- Dry-Bulb Temperature Range Modifier Type
  ,                                       !- Dry-Bulb Temperature Range Modifier Schedule Name
  ASHRAETau,                              !- Solar Model Indicator
  ,                                       !- Beam Solar Day Schedule Name
  ,                                       !- Diffuse Solar Day Schedule Name
  0.223,                                  !- ASHRAE Taub {dimensionless}
  2.656;                                  !- ASHRAE Taud {dimensionless}

OS:SizingPeriod:DesignDay,
  {cb7c6724-32ec-409e-9482-57bd24926432}, !- Handle
  Lake Co December .4% Condns WB=>MCDB 1, !- Name
  5,                                      !- Maximum Dry-Bulb Temperature {C}
  11,                                     !- Daily Dry-Bulb Temperature Range {deltaC}
  -0.5,                                   !- Humidity Indicating Conditions at Maximum Dry-Bulb
  69877,                                  !- Barometric Pressure {Pa}
  4.9,                                    !- Wind Speed {m/s}
  310,                                    !- Wind Direction {deg}
  0,                                      !- Sky Clearness
  0,                                      !- Rain Indicator
  0,                                      !- Snow Indicator
  21,                                     !- Day of Month
  12,                                     !- Month
  SummerDesignDay,                        !- Day Type
  0,                                      !- Daylight Saving Time Indicator
  Wetbulb,                                !- Humidity Indicating Type
  ,                                       !- Humidity Indicating Day Schedule Name
  DefaultMultipliers,                     !- Dry-Bulb Temperature Range Modifier Type
  ,                                       !- Dry-Bulb Temperature Range Modifier Schedule Name
  ASHRAETau,                              !- Solar Model Indicator
  ,                                       !- Beam Solar Day Schedule Name
  ,                                       !- Diffuse Solar Day Schedule Name
  0.223,                                  !- ASHRAE Taub {dimensionless}
  2.656;                                  !- ASHRAE Taud {dimensionless}

OS:SizingPeriod:DesignDay,
  {3cb80577-d2ff-4ebf-842a-98ee9c67ac96}, !- Handle
  Lake Co February .4% Condns DB=>MCWB 1, !- Name
  6.4,                                    !- Maximum Dry-Bulb Temperature {C}
  11.4,                                   !- Daily Dry-Bulb Temperature Range {deltaC}
  -1.5,                                   !- Humidity Indicating Conditions at Maximum Dry-Bulb
  69877,                                  !- Barometric Pressure {Pa}
  4.9,                                    !- Wind Speed {m/s}
  310,                                    !- Wind Direction {deg}
  0,                                      !- Sky Clearness
  0,                                      !- Rain Indicator
  0,                                      !- Snow Indicator
  21,                                     !- Day of Month
  2,                                      !- Month
  SummerDesignDay,                        !- Day Type
  0,                                      !- Daylight Saving Time Indicator
  Wetbulb,                                !- Humidity Indicating Type
  ,                                       !- Humidity Indicating Day Schedule Name
  DefaultMultipliers,                     !- Dry-Bulb Temperature Range Modifier Type
  ,                                       !- Dry-Bulb Temperature Range Modifier Schedule Name
  ASHRAETau,                              !- Solar Model Indicator
  ,                                       !- Beam Solar Day Schedule Name
  ,                                       !- Diffuse Solar Day Schedule Name
  0.232,                                  !- ASHRAE Taub {dimensionless}
  2.503;                                  !- ASHRAE Taud {dimensionless}

OS:SizingPeriod:DesignDay,
  {b3bf9294-bd8e-4882-bb6f-48bbb82534cf}, !- Handle
  Lake Co February .4% Condns WB=>MCDB 1, !- Name
  4.5,                                    !- Maximum Dry-Bulb Temperature {C}
  11.4,                                   !- Daily Dry-Bulb Temperature Range {deltaC}
  0,                                      !- Humidity Indicating Conditions at Maximum Dry-Bulb
  69877,                                  !- Barometric Pressure {Pa}
  4.9,                                    !- Wind Speed {m/s}
  310,                                    !- Wind Direction {deg}
  0,                                      !- Sky Clearness
  0,                                      !- Rain Indicator
  0,                                      !- Snow Indicator
  21,                                     !- Day of Month
  2,                                      !- Month
  SummerDesignDay,                        !- Day Type
  0,                                      !- Daylight Saving Time Indicator
  Wetbulb,                                !- Humidity Indicating Type
  ,                                       !- Humidity Indicating Day Schedule Name
  DefaultMultipliers,                     !- Dry-Bulb Temperature Range Modifier Type
  ,                                       !- Dry-Bulb Temperature Range Modifier Schedule Name
  ASHRAETau,                              !- Solar Model Indicator
  ,                                       !- Beam Solar Day Schedule Name
  ,                                       !- Diffuse Solar Day Schedule Name
  0.232,                                  !- ASHRAE Taub {dimensionless}
  2.503;                                  !- ASHRAE Taud {dimensionless}

OS:SizingPeriod:DesignDay,
  {25a056ba-db0f-4d2e-9f71-f807e1fcdca2}, !- Handle
  Lake Co January .4% Condns DB=>MCWB 1,  !- Name
  7,                                      !- Maximum Dry-Bulb Temperature {C}
  11.3,                                   !- Daily Dry-Bulb Temperature Range {deltaC}
  -1.1,                                   !- Humidity Indicating Conditions at Maximum Dry-Bulb
  69877,                                  !- Barometric Pressure {Pa}
  4.9,                                    !- Wind Speed {m/s}
  310,                                    !- Wind Direction {deg}
  0,                                      !- Sky Clearness
  0,                                      !- Rain Indicator
  0,                                      !- Snow Indicator
  21,                                     !- Day of Month
  1,                                      !- Month
  SummerDesignDay,                        !- Day Type
  0,                                      !- Daylight Saving Time Indicator
  Wetbulb,                                !- Humidity Indicating Type
  ,                                       !- Humidity Indicating Day Schedule Name
  DefaultMultipliers,                     !- Dry-Bulb Temperature Range Modifier Type
  ,                                       !- Dry-Bulb Temperature Range Modifier Schedule Name
  ASHRAETau,                              !- Solar Model Indicator
  ,                                       !- Beam Solar Day Schedule Name
  ,                                       !- Diffuse Solar Day Schedule Name
  0.223,                                  !- ASHRAE Taub {dimensionless}
  2.654;                                  !- ASHRAE Taud {dimensionless}

OS:SizingPeriod:DesignDay,
  {a791cdd1-e44d-4cc6-9c9e-ebfc49738fcb}, !- Handle
  Lake Co January .4% Condns WB=>MCDB 1,  !- Name
  3.1,                                    !- Maximum Dry-Bulb Temperature {C}
  11.3,                                   !- Daily Dry-Bulb Temperature Range {deltaC}
  -0.5,                                   !- Humidity Indicating Conditions at Maximum Dry-Bulb
  69877,                                  !- Barometric Pressure {Pa}