
Version,
  23.2;                                   !- Version Identifier

Timestep,
  4;                                      !- Number of Timesteps per Hour

LifeCycleCost:Parameters,
  Life Cycle Cost Parameters,             !- Name
  EndOfYear,                              !- Discounting Convention
  ConstantDollar,                         !- Inflation Approach
  0.03,                                   !- Real Discount Rate
  ,                                       !- Nominal Discount Rate
  ,                                       !- Inflation
  ,                                       !- Base Date Month
  2011,                                   !- Base Date Year
  ,                                       !- Service Date Month
  2011,                                   !- Service Date Year
  25,                                     !- Length of Study Period in Years
  ,                                       !- Tax rate
  None;                                   !- Depreciation Method

LifeCycleCost:UsePriceEscalation,
  U.S. Avg  Commercial-Electricity,       !- Name
  Electricity,                            !- Resource
  2011,                                   !- Escalation Start Year
  January,                                !- Escalation Start Month
  0.9838,                                 !- Year Escalation 1
  0.9730,                                 !- Year Escalation 2
  0.9632,                                 !- Year Escalation 3
  0.9611,                                 !- Year Escalation 4
  0.9571,                                 !- Year Escalation 5
  0.9553,                                 !- Year Escalation 6
  0.9539,                                 !- Year Escalation 7
  0.9521,                                 !- Year Escalation 8
  0.9546,                                 !- Year Escalation 9
  0.9550,                                 !- Year Escalation 10
  0.9553,                                 !- Year Escalation 11
  0.9564,                                 !- Year Escalation 12
  0.9575,                                 !- Year Escalation 13
  0.9596,                                 !- Year Escalation 14
  0.9618,                                 !- Year Escalation 15
  0.9614,                                 !- Year Escalation 16
  0.9618,                                 !- Year Escalation 17
  0.9618,                                 !- Year Escalation 18
  0.9593,                                 !- Year Escalation 19
  0.9589,                                 !- Year Escalation 20
  0.9607,                                 !- Year Escalation 21
  0.9625,                                 !- Year Escalation 22
  0.9650,                                 !- Year Escalation 23
  0.9708,                                 !- Year Escalation 24
  0.9751,                                 !- Year Escalation 25
  0.9762,                                 !- Year Escalation 26
  0.9766,                                 !- Year Escalation 27
  0.9766,                                 !- Year Escalation 28
  0.9769,                                 !- Year Escalation 29
  0.9773;                                 !- Year Escalation 30

LifeCycleCost:UsePriceEscalation,
  U.S. Avg  Commercial-Distillate Oil,    !- Name
  FuelOilNo1,                             !- Resource
  2011,                                   !- Escalation Start Year
  January,                                !- Escalation Start Month
  0.9714,                                 !- Year Escalation 1
  0.9730,                                 !- Year Escalation 2
  0.9942,                                 !- Year Escalation 3
  1.0164,                                 !- Year Escalation 4
  1.0541,                                 !- Year Escalation 5
  1.0928,                                 !- Year Escalation 6
  1.1267,                                 !- Year Escalation 7
  1.1580,                                 !- Year Escalation 8
  1.1792,                                 !- Year Escalation 9
  1.1967,                                 !- Year Escalation 10
  1.2200,                                 !- Year Escalation 11
  1.2333,                                 !- Year Escalation 12
  1.2566,                                 !- Year Escalation 13
  1.2709,                                 !- Year Escalation 14
  1.2826,                                 !- Year Escalation 15
  1.2985,                                 !- Year Escalation 16
  1.3102,                                 !- Year Escalation 17
  1.3250,                                 !- Year Escalation 18
  1.3261,                                 !- Year Escalation 19
  1.3282,                                 !- Year Escalation 20
  1.3324,                                 !- Year Escalation 21
  1.3356,                                 !- Year Escalation 22
  1.3431,                                 !- Year Escalation 23
  1.3510,                                 !- Year Escalation 24
  1.3568,                                 !- Year Escalation 25
  1.3606,                                 !- Year Escalation 26
  1.3637,                                 !- Year Escalation 27
  1.3674,                                 !- Year Escalation 28
  1.3706,                                 !- Year Escalation 29
  1.3743;                                 !- Year Escalation 30

LifeCycleCost:UsePriceEscalation,
  U.S. Avg  Commercial-Residual Oil,      !- Name
  FuelOilNo2,                             !- Resource
  2011,                                   !- Escalation Start Year
  January,                                !- Escalation Start Month
  0.8469,                                 !- Year Escalation 1
  0.8257,                                 !- Year Escalation 2
  0.8681,                                 !- Year Escalation 3
  0.8988,                                 !- Year Escalation 4
  0.9289,                                 !- Year Escalation 5
  0.9604,                                 !- Year Escalation 6
  0.9897,                                 !- Year Escalation 7
  1.0075,                                 !- Year Escalation 8
  1.0314,                                 !- Year Escalation 9
  1.0554,                                 !- Year Escalation 10
  1.0861,                                 !- Year Escalation 11
  1.1278,                                 !- Year Escalation 12
  1.1497,                                 !- Year Escalation 13
  1.1620,                                 !- Year Escalation 14
  1.1743,                                 !- Year Escalation 15
  1.1852,                                 !- Year Escalation 16
  1.1948,                                 !- Year Escalation 17
  1.2037,                                 !- Year Escalation 18
  1.2071,                                 !- Year Escalation 19
  1.2119,                                 !- Year Escalation 20
  1.2139,                                 !- Year Escalation 21
  1.2194,                                 !- Year Escalation 22
  1.2276,                                 !- Year Escalation 23
  1.2365,                                 !- Year Escalation 24
  1.2420,                                 !- Year Escalation 25
  1.2461,                                 !- Year Escalation 26
  1.2509,                                 !- Year Escalation 27
  1.2550,                                 !- Year Escalation 28
  1.2591,                                 !- Year Escalation 29
  1.2638;                                 !- Year Escalation 30

LifeCycleCost:UsePriceEscalation,
  U.S. Avg  Commercial-Natural gas,       !- Name
  NaturalGas,                             !- Resource
  2011,                                   !- Escalation Start Year
  January,                                !- Escalation Start Month
  0.9823,                                 !- Year Escalation 1
  0.9557,                                 !- Year Escalation 2
  0.9279,                                 !- Year Escalation 3
  0.9257,                                 !- Year Escalation 4
  0.9346,                                 !- Year Escalation 5
  0.9412,                                 !- Year Escalation 6
  0.9512,                                 !- Year Escalation 7
  0.9645,                                 !- Year Escalation 8
  0.9856,                                 !- Year Escalation 9
  1.0067,                                 !- Year Escalation 10
  1.0222,                                 !- Year Escalation 11
  1.0410,                                 !- Year Escalation 12
  1.0610,                                 !- Year Escalation 13
  1.0787,                                 !- Year Escalation 14
  1.0942,                                 !- Year Escalation 15
  1.1098,                                 !- Year Escalation 16
  1.1220,                                 !- Year Escalation 17
  1.1308,                                 !- Year Escalation 18
  1.1386,                                 !- Year Escalation 19
  1.1486,                                 !- Year Escalation 20
  1.1619,                                 !- Year Escalation 21
  1.1763,                                 !- Year Escalation 22
  1.1918,                                 !- Year Escalation 23
  1.2118,                                 !- Year Escalation 24
  1.2284,                                 !- Year Escalation 25
  1.2439,                                 !- Year Escalation 26
  1.2605,                                 !- Year Escalation 27
  1.2772,                                 !- Year Escalation 28
  1.2938,                                 !- Year Escalation 29
  1.3115;                                 !- Year Escalation 30

LifeCycleCost:UsePriceEscalation,
  U.S. Avg  Commercial-Coal,              !- Name
  Coal,                                   !- Resource
  2011,                                   !- Escalation Start Year
  January,                                !- Escalation Start Month
  0.9970,                                 !- Year Escalation 1
  1.0089,                                 !- Year Escalation 2
  1.0089,                                 !- Year Escalation 3
  0.9941,                                 !- Year Escalation 4
  0.9941,                                 !- Year Escalation 5
  1.0000,                                 !- Year Escalation 6
  1.0030,                                 !- Year Escalation 7
  1.0059,                                 !- Year Escalation 8
  1.0089,                                 !- Year Escalation 9
  1.0119,                                 !- Year Escalation 10
  1.0148,                                 !- Year Escalation 11
  1.0178,                                 !- Year Escalation 12
  1.0208,                                 !- Year Escalation 13
  1.0267,                                 !- Year Escalation 14
  1.0297,                                 !- Year Escalation 15
  1.0356,                                 !- Year Escalation 16
  1.0415,                                 !- Year Escalation 17
  1.0534,                                 !- Year Escalation 18
  1.0564,                                 !- Year Escalation 19
  1.0593,                                 !- Year Escalation 20
  1.0653,                                 !- Year Escalation 21
  1.0712,                                 !- Year Escalation 22
  1.0742,                                 !- Year Escalation 23
  1.0801,                                 !- Year Escalation 24
  1.0831,                                 !- Year Escalation 25
  1.0831,                                 !- Year Escalation 26
  1.0861,                                 !- Year Escalation 27
  1.0890,                                 !- Year Escalation 28
  1.0920,                                 !- Year Escalation 29
  1.0950;                                 !- Year Escalation 30

Building,
  ComStock DOE Ref 1980-2004|LargeOffice, !- Name
  315,                                    !- North Axis {deg}
  City,                                   !- Terrain
  ,                                       !- Loads Convergence Tolerance Value {W}
  ,                                       !- Temperature Convergence Tolerance Value {deltaC}
  ,                                       !- Solar Distribution
  ,                                       !- Maximum Number of Warmup Days
  ;                                       !- Minimum Number of Warmup Days

Zone,
  Zone Office WholeBuilding - Lg Office A  - Story Ground, !- Name
  -0,                                     !- Direction of Relative North {deg}
  -46.5445139656452,                      !- X Origin {m}
  -17.0388379885484,                      !- Y Origin {m}
  0,                                      !- Z Origin {m}
  ,                                       !- Type
  1,                                      !- Multiplier
  ,                                       !- Ceiling Height {m}
  ,                                       !- Volume {m3}
  ,                                       !- Floor Area {m2}
  ,                                       !- Zone Inside Convection Algorithm
  ,                                       !- Zone Outside Convection Algorithm
  Yes;                                    !- Part of Total Floor Area

Space,
  Office WholeBuilding - Lg Office A  - Story Ground, !- Name
  Zone Office WholeBuilding - Lg Office A  - Story Ground, !- Zone Name
  ,                                       !- Ceiling Height {m}
  ,                                       !- Volume {m3}
  ,                                       !- Floor Area {m2}
  Office WholeBuilding - Lg Office - ComStock DOE Ref 1980-2004; !- Space Type

SpaceList,
  Office WholeBuilding - Lg Office - ComStock DOE Ref 1980-2004, !- Name
  Office WholeBuilding - Lg Office A end_a - Story Ground, !- Space Name 1
  Office WholeBuilding - Lg Office B end_a - Story Ground, !- Space Name 2
  Office WholeBuilding - Lg Office C end_a - Story Ground, !- Space Name 3
  Office WholeBuilding - Lg Office A  - Story Ground, !- Space Name 4
  Office WholeBuilding - Lg Office C  - Story Ground, !- Space Name 5
  Office WholeBuilding - Lg Office A end_b - Story Ground, !- Space Name 6
  Office WholeBuilding - Lg Office B end_b - Story Ground, !- Space Name 7
  Office WholeBuilding - Lg Office B  - Story Ground, !- Space Name 8
  Office WholeBuilding - Lg Office C end_b - Story Ground; !- Space Name 9

Lights,
  Office WholeBuilding - Lg Office - ComStock DOE Ref 1980-2004 General Lighting, !- Name
  Office WholeBuilding - Lg Office - ComStock DOE Ref 1980-2004, !- Zone or ZoneList or Space or SpaceList Name
  Office BLDG_LIGHT_EndUseData BPR Adjusted, !- Schedule Name
  Watts/Area,                             !- Design Level Calculation Method
  ,                                       !- Lighting Level {W}
  5.09929644999896,                       !- Watts per Zone Floor Area {W/m2}
  ,                                       !- Watts per Person {W/person}
  0,                                      !- Return Air Fraction
  0.31,                                   !- Fraction Radiant
  0.2,                                    !- Fraction Visible
  1,                                      !- Fraction Replaceable
  General;                                !- End-Use Subcategory

ScheduleTypeLimits,
  Fractional,                             !- Name
  0,                                      !- Lower Limit Value {BasedOnField A3}
  1,                                      !- Upper Limit Value {BasedOnField A3}
  Continuous;                             !- Numeric Type

Schedule:Day:Interval,
  Office BLDG_LIGHT_EndUseData Default 1, !- Name
  Fractional,                             !- Schedule Type Limits Name
  No,                                     !- Interpolate to Timestep
  00:15,                                  !- Time 1 {hh:mm}
  0.266999851716231,                      !- Value Until Time 1
  00:30,                                  !- Time 2 {hh:mm}
  0.264931269577723,                      !- Value Until Time 2
  00:45,                                  !- Time 3 {hh:mm}
  0.267460402907644,                      !- Value Until Time 3
  01:00,                                  !- Time 4 {hh:mm}
  0.269989536237565,                      !- Value Until Time 4
  01:15,                                  !- Time 5 {hh:mm}
  0.272518669567486,                      !- Value Until Time 5
  01:30,                                  !- Time 6 {hh:mm}
  0.275047802897406,                      !- Value Until Time 6
  01:45,                                  !- Time 7 {hh:mm}
  0.277576936227327,                      !- Value Until Time 7
  02:00,                                  !- Time 8 {hh:mm}
  0.280106069557248,                      !- Value Until Time 8
  02:15,                                  !- Time 9 {hh:mm}
  0.282635202887169,                      !- Value Until Time 9
  02:30,                                  !- Time 10 {hh:mm}
  0.28516433621709,                       !- Value Until Time 10
  02:45,                                  !- Time 11 {hh:mm}
  0.287693469547011,                      !- Value Until Time 11
  03:00,                                  !- Time 12 {hh:mm}
  0.290222602876931,                      !- Value Until Time 12
  03:15,                                  !- Time 13 {hh:mm}
  0.292751736206852,                      !- Value Until Time 13
  03:30,                                  !- Time 14 {hh:mm}
  0.311159663322316,                      !- Value Until Time 14
  03:45,                                  !- Time 15 {hh:mm}
  0.32956759043778,                       !- Value Until Time 15
  04:00,                                  !- Time 16 {hh:mm}
  0.347975517553244,                      !- Value Until Time 16
  04:15,                                  !- Time 17 {hh:mm}
  0.366383444668708,                      !- Value Until Time 17
  04:30,                                  !- Time 18 {hh:mm}
  0.431157633611641,                      !- Value Until Time 18
  04:45,                                  !- Time 19 {hh:mm}
  0.495931822554574,                      !- Value Until Time 19
  05:00,                                  !- Time 20 {hh:mm}
  0.560706011497507,                      !- Value Until Time 20
  05:15,                                  !- Time 21 {hh:mm}
  0.62548020044044,                       !- Value Until Time 21
  05:30,                                  !- Time 22 {hh:mm}
  0.667587050844176,                      !- Value Until Time 22
  05:45,                                  !- Time 23 {hh:mm}
  0.709693901247912,                      !- Value Until Time 23
  06:00,                                  !- Time 24 {hh:mm}
  0.751800751651648,                      !- Value Until Time 24
  06:15,                                  !- Time 25 {hh:mm}
  0.793907602055385,                      !- Value Until Time 25
  06:30,                                  !- Time 26 {hh:mm}
  0.806693857130427,                      !- Value Until Time 26
  06:45,                                  !- Time 27 {hh:mm}
  0.81948011220547,                       !- Value Until Time 27
  07:00,                                  !- Time 28 {hh:mm}
  0.832266367280512,                      !- Value Until Time 28
  07:15,                                  !- Time 29 {hh:mm}
  0.845052622355555,                      !- Value Until Time 29
  07:30,                                  !- Time 30 {hh:mm}
  0.846701748237037,                      !- Value Until Time 30
  07:45,                                  !- Time 31 {hh:mm}
  0.848350874118518,                      !- Value Until Time 31
  08:00,                                  !- Time 32 {hh:mm}
  0.85,                                   !- Value Until Time 32
  08:15,                                  !- Time 33 {hh:mm}
  0.844155568361881,                      !- Value Until Time 33
  08:30,                                  !- Time 34 {hh:mm}
  0.838311136723762,                      !- Value Until Time 34
  08:45,                                  !- Time 35 {hh:mm}
  0.832466705085643,                      !- Value Until Time 35
  09:00,                                  !- Time 36 {hh:mm}
  0.826622273447524,                      !- Value Until Time 36
  09:15,                                  !- Time 37 {hh:mm}
  0.817525952723213,                      !- Value Until Time 37
  09:30,                                  !- Time 38 {hh:mm}
  0.808429631998902,                      !- Value Until Time 38
  09:45,                                  !- Time 39 {hh:mm}
  0.799333311274591,                      !- Value Until Time 39
  10:00,                                  !- Time 40 {hh:mm}
  0.79023699055028,                       !- Value Until Time 40
  10:15,                                  !- Time 41 {hh:mm}
  0.794639135824256,                      !- Value Until Time 41
  10:30,                                  !- Time 42 {hh:mm}
  0.799041281098231,                      !- Value Until Time 42
  10:45,                                  !- Time 43 {hh:mm}
  0.803443426372207,                      !- Value Until Time 43
  11:00,                                  !- Time 44 {hh:mm}
  0.807845571646183,                      !- Value Until Time 44
  11:15,                                  !- Time 45 {hh:mm}
  0.802926266815196,                      !- Value Until Time 45
  11:30,                                  !- Time 46 {hh:mm}
  0.798006961984208,                      !- Value Until Time 46
  11:45,                                  !- Time 47 {hh:mm}
  0.793087657153221,                      !- Value Until Time 47
  12:00,                                  !- Time 48 {hh:mm}
  0.788168352322234,                      !- Value Until Time 48
  12:15,                                  !- Time 49 {hh:mm}
  0.766574890043296,                      !- Value Until Time 49
  12:30,                                  !- Time 50 {hh:mm}
  0.744981427764359,                      !- Value Until Time 50
  12:45,                                  !- Time 51 {hh:mm}
  0.723387965485421,                      !- Value Until Time 51
  13:00,                                  !- Time 52 {hh:mm}
  0.701794503206483,                      !- Value Until Time 52
  13:15,                                  !- Time 53 {hh:mm}
  0.617488077045468,                      !- Value Until Time 53
  13:30,                                  !- Time 54 {hh:mm}
  0.533181650884454,                      !- Value Until Time 54
  13:45,                                  !- Time 55 {hh:mm}
  0.448875224723439,                      !- Value Until Time 55
  14:00,                                  !- Time 56 {hh:mm}
  0.418887444347631,                      !- Value Until Time 56
  14:15,                                  !- Time 57 {hh:mm}
  0.388899663971824,                      !- Value Until Time 57
  14:30,                                  !- Time 58 {hh:mm}
  0.358911883596016,                      !- Value Until Time 58
  14:45,                                  !- Time 59 {hh:mm}
  0.328924103220209,                      !- Value Until Time 59
  15:00,                                  !- Time 60 {hh:mm}
  0.320912596215945,                      !- Value Until Time 60
  15:15,                                  !- Time 61 {hh:mm}
  0.312901089211682,                      !- Value Until Time 61
  15:30,                                  !- Time 62 {hh:mm}
  0.304889582207418,                      !- Value Until Time 62
  15:45,                                  !- Time 63 {hh:mm}
  0.296878075203155,                      !- Value Until Time 63
  16:00,                                  !- Time 64 {hh:mm}
  0.295942557809224,                      !- Value Until Time 64
  16:15,                                  !- Time 65 {hh:mm}
  0.295007040415293,                      !- Value Until Time 65
  16:30,                                  !- Time 66 {hh:mm}
  0.294071523021361,                      !- Value Until Time 66
  16:45,                                  !- Time 67 {hh:mm}
  0.29313600562743,                       !- Value Until Time 67
  17:00,                                  !- Time 68 {hh:mm}
  0.293329051792702,                      !- Value Until Time 68
  17:15,                                  !- Time 69 {hh:mm}
  0.293522097957973,                      !- Value Until Time 69
  17:30,                                  !- Time 70 {hh:mm}
  0.293715144123245,                      !- Value Until Time 70
  17:45,                                  !- Time 71 {hh:mm}
  0.293908190288516,                      !- Value Until Time 71
  18:00,                                  !- Time 72 {hh:mm}
  0.293806289621484,                      !- Value Until Time 72
  18:15,                                  !- Time 73 {hh:mm}
  0.293704388954452,                      !- Value Until Time 73
  18:30,                                  !- Time 74 {hh:mm}
  0.29360248828742,                       !- Value Until Time 74
  18:45,                                  !- Time 75 {hh:mm}
  0.293500587620389,                      !- Value Until Time 75
  19:00,                                  !- Time 76 {hh:mm}
  0.287512510677044,                      !- Value Until Time 76
  19:15,                                  !- Time 77 {hh:mm}
  0.2815244337337,                        !- Value Until Time 77
  19:30,                                  !- Time 78 {hh:mm}
  0.275536356790355,                      !- Value Until Time 78
  19:45,                                  !- Time 79 {hh:mm}
  0.26954827984701,                       !- Value Until Time 79
  20:00,                                  !- Time 80 {hh:mm}
  0.268707006898259,                      !- Value Until Time 80
  20:15,                                  !- Time 81 {hh:mm}
  0.267865733949508,                      !- Value Until Time 81
  20:30,                                  !- Time 82 {hh:mm}
  0.267024461000756,                      !- Value Until Time 82
  20:45,                                  !- Time 83 {hh:mm}
  0.266183188052005,                      !- Value Until Time 83
  21:00,                                  !- Time 84 {hh:mm}
  0.263387391039004,                      !- Value Until Time 84
  21:15,                                  !- Time 85 {hh:mm}
  0.260591594026002,                      !- Value Until Time 85
  21:30,                                  !- Time 86 {hh:mm}
  0.257795797013001,                      !- Value Until Time 86
  21:45,                                  !- Time 87 {hh:mm}
  0.255,                                  !- Value Until Time 87
  22:00,                                  !- Time 88 {hh:mm}
  0.255329582121634,                      !- Value Until Time 88
  22:15,                                  !- Time 89 {hh:mm}
  0.255659164243269,                      !- Value Until Time 89
  22:30,                                  !- Time 90 {hh:mm}
  0.255988746364903,                      !- Value Until Time 90
  22:45,                                  !- Time 91 {hh:mm}
  0.256318328486537,                      !- Value Until Time 91
  23:00,                                  !- Time 92 {hh:mm}
  0.256647910608172,                      !- Value Until Time 92
  23:15,                                  !- Time 93 {hh:mm}
  0.256977492729806,                      !- Value Until Time 93
  23:30,                                  !- Time 94 {hh:mm}
  0.259483082476412,                      !- Value Until Time 94
  23:45,                                  !- Time 95 {hh:mm}
  0.261988672223019,                      !- Value Until Time 95
  24:00,                                  !- Time 96 {hh:mm}
  0.264494261969625;                      !- Value Until Time 96

Schedule:Day:Interval,
  Office BLDG_LIGHT_EndUseData Sat Day,   !- Name
  Fractional,                             !- Schedule Type Limits Name
  Average,                                !- Interpolate to Timestep
  00:15,                                  !- Time 1 {hh:mm}
  0.0401866481082006,                     !- Value Until Time 1
  00:30,                                  !- Time 2 {hh:mm}
  0.00654629174835619,                    !- Value Until Time 2
  00:45,                                  !- Time 3 {hh:mm}
  0.00727637616641222,                    !- Value Until Time 3
  01:00,                                  !- Time 4 {hh:mm}
  0.00800646058446845,                    !- Value Until Time 4
  01:15,                                  !- Time 5 {hh:mm}
  0.00873654500252467,                    !- Value Until Time 5
  01:30,                                  !- Time 6 {hh:mm}
  0.0094666294205809,                     !- Value Until Time 6
  01:45,                                  !- Time 7 {hh:mm}
  0.0101967138386369,                     !- Value Until Time 7
  02:00,                                  !- Time 8 {hh:mm}
  0.0109267982566932,                     !- Value Until Time 8
  02:15,                                  !- Time 9 {hh:mm}
  0.0116568826747494,                     !- Value Until Time 9
  02:30,                                  !- Time 10 {hh:mm}
  0.0123869670928056,                     !- Value Until Time 10
  02:45,                                  !- Time 11 {hh:mm}
  0.0131170515108618,                     !- Value Until Time 11
  03:00,                                  !- Time 12 {hh:mm}
  0.0138471359289179,                     !- Value Until Time 12
  03:15,                                  !- Time 13 {hh:mm}
  0.0145772203469741,                     !- Value Until Time 13
  03:30,                                  !- Time 14 {hh:mm}
  0.0153073047650303,                     !- Value Until Time 14
  03:45,                                  !- Time 15 {hh:mm}