
OS:Version,
  {0db76624-38e9-40a8-9111-ae6d0e899dde}, !- Handle
  3.8.0;                                  !- Version Identifier

OS:Building,
  {0af4f7f1-459b-43e9-b71f-f35e718621f8}, !- Handle
  ComStock DOE Ref 1980-2004|LargeOffice, !- Name
  ,                                       !- Building Sector Type
  315,                                    !- North Axis {deg}
  ,                                       !- Nominal Floor to Floor Height {m}
  ,                                       !- Space Type Name
  {a60f0a8f-9591-45eb-a885-79239d6a45ac}, !- Default Construction Set Name
  {37150114-293e-43e5-add9-ae51bf4d21e1}, !- Default Schedule Set Name
  ,                                       !- Standards Number of Stories
  ,                                       !- Standards Number of Above Ground Stories
  ,                                       !- Standards Template
  Office;                                 !- Standards Building Type

OS:Facility,
  {83559a54-3c77-4130-86b8-f2db3faa4e3e}; !- Handle

OS:Site,
  {69cc3365-ebcd-40c1-83ba-f01951859031}, !- Handle
  Centreville_AL_USA,                     !- Name
  32.9,                                   !- Latitude {deg}
  -87.25,                                 !- Longitude {deg}
  -6,                                     !- Time Zone {hr}
  140,                                    !- Elevation {m}
  City;                                   !- Terrain

OS:SimulationControl,
  {4602db5e-a76f-4d2e-867d-15cd6f0a9866}, !- Handle
  Yes,                                    !- Do Zone Sizing Calculation
  Yes,                                    !- Do System Sizing Calculation
  Yes,                                    !- Do Plant Sizing Calculation
  No,                                     !- Run Simulation for Sizing Periods
  Yes,                                    !- Run Simulation for Weather File Run Periods
  ,                                       !- Loads Convergence Tolerance Value {W}
  ,                                       !- Temperature Convergence Tolerance Value {deltaC}
  ,                                       !- Solar Distribution
  ,                                       !- Maximum Number of Warmup Days
  ,                                       !- Minimum Number of Warmup Days
  No,                                     !- Do HVAC Sizing Simulation for Sizing Periods
  1;                                      !- Maximum Number of HVAC Sizing Simulation Passes

OS:Sizing:Parameters,
  {444795c7-81ca-4f28-ac90-03134bcfdb18}, !- Handle
  1.25,                                   !- Heating Sizing Factor
  1.15;                                   !- Cooling Sizing Factor

OS:Timestep,
  {fb2a058e-a48b-43f3-94dc-be3c4b3a2c7a}, !- Handle
  4;                                      !- Number of Timesteps per Hour

OS:ShadowCalculation,
  {03bcc34f-1903-47d8-876a-dfe3a6c479c5}, !- Handle
  PolygonClipping,                        !- Shading Calculation Method
  ,                                       !- Shading Calculation Update Frequency Method
  20,                                     !- Shading Calculation Update Frequency
  15000,                                  !- Maximum Figures in Shadow Overlap Calculations
  ,                                       !- Polygon Clipping Algorithm
  512,                                    !- Pixel Counting Resolution
  ,                                       !- Sky Diffuse Modeling Algorithm
  No,                                     !- Output External Shading Calculation Results
  No,                                     !- Disable Self-Shading Within Shading Zone Groups
  No;                                     !- Disable Self-Shading From Shading Zone Groups to Other Zones

OS:HeatBalanceAlgorithm,
  {c602b4ef-65b5-4624-bb65-9c667631cc7d}, !- Handle
  ConductionTransferFunction,             !- Algorithm
  200;                                    !- Surface Temperature Upper Limit {C}

OS:RunPeriod,
  {dae2ec5c-8f10-4d3f-812a-dfd49b14b52d}, !- Handle
  Run Period 1,                           !- Name
  1,                                      !- Begin Month
  1,                                      !- Begin Day of Month
  12,                                     !- End Month
  31,                                     !- End Day of Month
  ,                                       !- Use Weather File Holidays and Special Days
  ,                                       !- Use Weather File Daylight Saving Period
  ,                                       !- Apply Weekend Holiday Rule
  ,                                       !- Use Weather File Rain Indicators
  ,                                       !- Use Weather File Snow Indicators
  ;                                       !- Number of Times Runperiod to be Repeated

OS:LifeCycleCost:Parameters,
  {7d92d58b-b400-4936-b0d2-7adcd893ccfb}, !- Handle
  ,                                       !- Analysis Type
  ,                                       !- Discounting Convention
  ,                                       !- Inflation Approach
  ,                                       !- Real Discount Rate
  ,                                       !- Nominal Discount Rate
  ,                                       !- Inflation
  ,                                       !- Base Date Month
  ,                                       !- Base Date Year
  ,                                       !- Service Date Month
  ,                                       !- Service Date Year
  ;                                       !- Length of Study Period in Years

OS:WeatherFile,
  {8aef0e56-3ea5-4a8f-b720-df174b5f3e50}, !- Handle
  Centreville,                            !- City
  AL,                                     !- State Province Region
  USA,                                    !- Country
  customized weather file,                !- Data Source
  722290,                                 !- WMO Number
  32.9,                                   !- Latitude {deg}
  -87.25,                                 !- Longitude {deg}
  -6,                                     !- Time Zone {hr}
  140,                                    !- Elevation {m}
  /weather/G0100470.epw,                  !- Url
  226BE93E,                               !- Checksum
  ,                                       !- Start Date Actual Year
  Friday;                                 !- Start Day of Week

OS:AdditionalProperties,
  {a1365d4e-c3c7-4af9-ba52-30b02e4dcdc7}, !- Handle
  {0af4f7f1-459b-43e9-b71f-f35e718621f8}, !- Object Name
  Building,                               !- Feature Name 1
  String,                                 !- Feature Data Type 1
  8,                                      !- Feature Value 1
  climate_zone,                           !- Feature Name 2
  String,                                 !- Feature Data Type 2
  3A,                                     !- Feature Value 2
  year_of_simulation,                     !- Feature Name 3
  String,                                 !- Feature Data Type 3
  2018,                                   !- Feature Value 3
  rotation,                               !- Feature Name 4
  String,                                 !- Feature Data Type 4
  315,                                    !- Feature Value 4
  cook_fuel_broiler,                      !- Feature Name 5
  String,                                 !- Feature Data Type 5
  Gas,                                    !- Feature Value 5
  cook_fuel_fryer,                        !- Feature Name 6
  String,                                 !- Feature Data Type 6
  Gas,                                    !- Feature Value 6
  cook_fuel_griddle,                      !- Feature Name 7
  String,                                 !- Feature Data Type 7
  Electric,                               !- Feature Value 7
  cook_fuel_oven,                         !- Feature Name 8
  String,                                 !- Feature Data Type 8
  Gas,                                    !- Feature Value 8
  cook_fuel_range,                        !- Feature Name 9
  String,                                 !- Feature Data Type 9
  Gas,                                    !- Feature Value 9
  cook_fuel_steamer,                      !- Feature Name 10
  String,                                 !- Feature Data Type 10
  Electric,                               !- Feature Value 10
  county_id,                              !- Feature Name 11
  String,                                 !- Feature Data Type 11
  G0100470,                               !- Feature Value 11
  ground_thermal_conductivity,            !- Feature Name 12
  String,                                 !- Feature Data Type 12
  1.1,                                    !- Feature Value 12
  state_id,                               !- Feature Name 13
  String,                                 !- Feature Data Type 13
  G010,                                   !- Feature Value 13
  energy_code_compliance_during_original_building_construction, !- Feature Name 14
  String,                                 !- Feature Data Type 14
  comply,                                 !- Feature Value 14
  energy_code_compliance_interior_lighting, !- Feature Name 15
  String,                                 !- Feature Data Type 15
  lead,                                   !- Feature Value 15
  energy_code_compliance_hvac,            !- Feature Name 16
  String,                                 !- Feature Data Type 16
  comply,                                 !- Feature Value 16
  energy_code_compliance_exterior_lighting, !- Feature Name 17
  String,                                 !- Feature Data Type 17
  comply,                                 !- Feature Value 17
  energy_code_compliance_interior_equipment, !- Feature Name 18
  String,                                 !- Feature Data Type 18
  comply,                                 !- Feature Value 18
  energy_code_compliance_roof,            !- Feature Name 19
  String,                                 !- Feature Data Type 19
  comply,                                 !- Feature Value 19
  energy_code_compliance_service_water_heating, !- Feature Name 20
  String,                                 !- Feature Data Type 20
  comply,                                 !- Feature Value 20
  energy_code_compliance_walls,           !- Feature Name 21
  String,                                 !- Feature Data Type 21
  comply,                                 !- Feature Value 21
  energy_code_compliance_windows,         !- Feature Name 22
  String,                                 !- Feature Data Type 22
  comply,                                 !- Feature Value 22
  building_type,                          !- Feature Name 23
  String,                                 !- Feature Data Type 23
  large_office,                           !- Feature Value 23
  region,                                 !- Feature Name 24
  String,                                 !- Feature Data Type 24
  East South Central,                     !- Feature Value 24
  rentable_area,                          !- Feature Name 25
  String,                                 !- Feature Data Type 25
  1001_5000,                              !- Feature Value 25
  year_built,                             !- Feature Name 26
  String,                                 !- Feature Data Type 26
  1995,                                   !- Feature Value 26
  ownership_status,                       !- Feature Name 27
  String,                                 !- Feature Data Type 27
  leased,                                 !- Feature Value 27
  party_responsible_for_operation,        !- Feature Name 28
  String,                                 !- Feature Data Type 28
  building_owner,                         !- Feature Value 28
  purchase_input_responsibility,          !- Feature Name 29
  String,                                 !- Feature Data Type 29
  building_owner_or_tenant,               !- Feature Value 29
  year_bin_of_last_interior_lighting_replacement, !- Feature Name 30
  String,                                 !- Feature Data Type 30
  2016,                                   !- Feature Value 30
  year_bin_of_original_building_construction, !- Feature Name 31
  String,                                 !- Feature Data Type 31
  1995,                                   !- Feature Value 31
  building_shape,                         !- Feature Name 32
  String,                                 !- Feature Data Type 32
  11,                                     !- Feature Value 32
  heating_fuel,                           !- Feature Name 33
  String,                                 !- Feature Data Type 33
  Electricity,                            !- Feature Value 33
  hvac_system_type,                       !- Feature Name 34
  String,                                 !- Feature Data Type 34
  VAV chiller with PFP boxes,             !- Feature Value 34
  hvac_tst_clg_delta_f,                   !- Feature Name 35
  String,                                 !- Feature Data Type 35
  6,                                      !- Feature Value 35
  hvac_tst_clg_sp_f,                      !- Feature Name 36
  String,                                 !- Feature Data Type 36
  74,                                     !- Feature Value 36
  hvac_tst_htg_delta_f,                   !- Feature Name 37
  String,                                 !- Feature Data Type 37
  4,                                      !- Feature Value 37
  hvac_tst_htg_sp_f,                      !- Feature Name 38
  String,                                 !- Feature Data Type 38
  64,                                     !- Feature Value 38
  ltg_sch_base_peak_ratio_type,           !- Feature Name 39
  String,                                 !- Feature Data Type 39
  office_ltg_bpr_almost_off,              !- Feature Value 39
  ltg_sch_weekday_base_peak_ratio,        !- Feature Name 40
  String,                                 !- Feature Data Type 40
  0,                                      !- Feature Value 40
  ltg_sch_weekend_base_peak_ratio,        !- Feature Name 41
  String,                                 !- Feature Data Type 41
  0.65,                                   !- Feature Value 41
  number_stories,                         !- Feature Name 42
  String,                                 !- Feature Data Type 42
  10,                                     !- Feature Value 42
  plugload_sch_base_peak_ratio_type,      !- Feature Name 43
  String,                                 !- Feature Data Type 43
  office_plugload_bpr_almost_on,          !- Feature Value 43
  plugload_sch_weekday_base_peak_ratio,   !- Feature Name 44
  String,                                 !- Feature Data Type 44
  0.95,                                   !- Feature Value 44
  plugload_sch_weekend_base_peak_ratio,   !- Feature Name 45
  String,                                 !- Feature Data Type 45
  0.9,                                    !- Feature Value 45
  service_water_heating_fuel,             !- Feature Name 46
  String,                                 !- Feature Data Type 46
  Electricity,                            !- Feature Value 46
  wall_construction_type,                 !- Feature Name 47
  String,                                 !- Feature Data Type 47
  mass,                                   !- Feature Value 47
  weekday_start_time,                     !- Feature Name 48
  String,                                 !- Feature Data Type 48
  8.75,                                   !- Feature Value 48
  weekend_start_time,                     !- Feature Name 49
  String,                                 !- Feature Data Type 49
  7.25,                                   !- Feature Value 49
  year_bin_of_last_hvac_replacement,      !- Feature Name 50
  String,                                 !- Feature Data Type 50
  2014,                                   !- Feature Value 50
  cook_dining_type,                       !- Feature Name 51
  String,                                 !- Feature Data Type 51
  None,                                   !- Feature Value 51
  building_size_lighting_tech,            !- Feature Name 52
  String,                                 !- Feature Data Type 52
  small,                                  !- Feature Value 52
  year_bin_of_last_exterior_lighting_replacement, !- Feature Name 53
  String,                                 !- Feature Data Type 53
  2015,                                   !- Feature Value 53
  year_bin_of_last_interior_equipment_replacement, !- Feature Name 54
  String,                                 !- Feature Data Type 54
  2016,                                   !- Feature Value 54
  year_bin_of_last_roof_replacement,      !- Feature Name 55
  String,                                 !- Feature Data Type 55
  1995,                                   !- Feature Value 55
  year_bin_of_last_service_water_heating_replacement, !- Feature Name 56
  String,                                 !- Feature Data Type 56
  2014,                                   !- Feature Value 56
  year_bin_of_last_walls_replacement,     !- Feature Name 57
  String,                                 !- Feature Data Type 57
  1995,                                   !- Feature Value 57
  year_bin_of_last_windows_replacement,   !- Feature Name 58
  String,                                 !- Feature Data Type 58
  1995,                                   !- Feature Value 58
  building_subtype,                       !- Feature Name 59
  String,                                 !- Feature Data Type 59
  largeoffice_datacenter,                 !- Feature Value 59
  energy_code_in_force_during_last_interior_lighting_replacement, !- Feature Name 60
  String,                                 !- Feature Data Type 60
  ComStock 90.1-2013,                     !- Feature Value 60
  energy_code_in_force_during_original_building_construction, !- Feature Name 61
  String,                                 !- Feature Data Type 61
  ComStock DOE Ref 1980-2004,             !- Feature Value 61
  window_wall_ratio,                      !- Feature Name 62
  String,                                 !- Feature Data Type 62
  2_10pct,                                !- Feature Value 62
  airtightness,                           !- Feature Name 63
  String,                                 !- Feature Data Type 63
  10.0,                                   !- Feature Value 63
  aspect_ratio,                           !- Feature Name 64
  String,                                 !- Feature Data Type 64
  3,                                      !- Feature Value 64
  energy_code_in_force_during_last_hvac_replacement, !- Feature Name 65
  String,                                 !- Feature Data Type 65
  ComStock 90.1-2007,                     !- Feature Value 65
  fault_economizer_damper_fully_closed,   !- Feature Name 66
  String,                                 !- Feature Data Type 66
  No fault,                               !- Feature Value 66
  hvac_night_variability,                 !- Feature Name 67
  String,                                 !- Feature Data Type 67
  night_fanon_vent,                       !- Feature Value 67
  weekday_duration,                       !- Feature Name 68
  String,                                 !- Feature Data Type 68
  11.5,                                   !- Feature Value 68
  weekend_duration,                       !- Feature Name 69
  String,                                 !- Feature Data Type 69
  13.0,                                   !- Feature Value 69
  cook_broiler_counts,                    !- Feature Name 70
  String,                                 !- Feature Data Type 70
  0.0,                                    !- Feature Value 70
  cook_fryers_counts,                     !- Feature Name 71
  String,                                 !- Feature Data Type 71
  0.0,                                    !- Feature Value 71
  cook_griddles_counts,                   !- Feature Name 72
  String,                                 !- Feature Data Type 72
  0.0,                                    !- Feature Value 72
  cook_ovens_counts,                      !- Feature Name 73
  String,                                 !- Feature Data Type 73
  0.0,                                    !- Feature Value 73
  cook_ranges_counts,                     !- Feature Name 74
  String,                                 !- Feature Data Type 74
  0.0,                                    !- Feature Value 74
  cook_steamers_counts,                   !- Feature Name 75
  String,                                 !- Feature Data Type 75
  0.0,                                    !- Feature Value 75
  lighting_generation,                    !- Feature Name 76
  String,                                 !- Feature Data Type 76
  gen2_t8_halogen,                        !- Feature Value 76
  energy_code_in_force_during_last_exterior_lighting_replacement, !- Feature Name 77
  String,                                 !- Feature Data Type 77
  ComStock 90.1-2007,                     !- Feature Value 77
  energy_code_in_force_during_last_interior_equipment_replacement, !- Feature Name 78
  String,                                 !- Feature Data Type 78
  ComStock 90.1-2013,                     !- Feature Value 78
  energy_code_in_force_during_last_roof_replacement, !- Feature Name 79
  String,                                 !- Feature Data Type 79
  ComStock DOE Ref 1980-2004,             !- Feature Value 79
  energy_code_in_force_during_last_service_water_heating_replacement, !- Feature Name 80
  String,                                 !- Feature Data Type 80
  ComStock 90.1-2007,                     !- Feature Value 80
  energy_code_in_force_during_last_walls_replacement, !- Feature Name 81
  String,                                 !- Feature Data Type 81
  ComStock DOE Ref 1980-2004,             !- Feature Value 81
  energy_code_in_force_during_last_windows_replacement, !- Feature Name 82
  String,                                 !- Feature Data Type 82
  ComStock DOE Ref 1980-2004,             !- Feature Value 82
  energy_code_followed_during_last_interior_lighting_replacement, !- Feature Name 83
  String,                                 !- Feature Data Type 83
  ComStock 90.1-2019,                     !- Feature Value 83
  energy_code_followed_during_original_building_construction, !- Feature Name 84
  String,                                 !- Feature Data Type 84
  ComStock DOE Ref 1980-2004,             !- Feature Value 84
  energy_code_followed_during_last_hvac_replacement, !- Feature Name 85
  String,                                 !- Feature Data Type 85
  ComStock 90.1-2007,                     !- Feature Value 85
  fault_economizer_db_limit,              !- Feature Name 86
  String,                                 !- Feature Data Type 86
  No fault,                               !- Feature Value 86
  energy_code_followed_during_last_exterior_lighting_replacement, !- Feature Name 87
  String,                                 !- Feature Data Type 87
  ComStock 90.1-2007,                     !- Feature Value 87
  energy_code_followed_during_last_interior_equipment_replacement, !- Feature Name 88
  String,                                 !- Feature Data Type 88
  ComStock 90.1-2013,                     !- Feature Value 88
  energy_code_followed_during_last_roof_replacement, !- Feature Name 89
  String,                                 !- Feature Data Type 89
  ComStock DOE Ref 1980-2004,             !- Feature Value 89
  energy_code_followed_during_last_service_water_heating_replacement, !- Feature Name 90
  String,                                 !- Feature Data Type 90
  ComStock 90.1-2007,                     !- Feature Value 90
  energy_code_followed_during_last_walls_replacement, !- Feature Name 91
  String,                                 !- Feature Data Type 91
  ComStock DOE Ref 1980-2004,             !- Feature Value 91
  energy_code_followed_during_last_windows_replacement, !- Feature Name 92
  String,                                 !- Feature Data Type 92
  ComStock DOE Ref 1980-2004,             !- Feature Value 92
  baseline_window_type,                   !- Feature Name 93
  String,                                 !- Feature Data Type 93
  Single - No LowE - Clear - Wood,        !- Feature Value 93
  baseline_hvac_sizing,                   !- Feature Name 94
  String,                                 !- Feature Data Type 94
  hardsize,                               !- Feature Value 94
  nhgis_tract_gisjoin,                    !- Feature Name 95
  String,                                 !- Feature Data Type 95
  G0100470956300,                         !- Feature Value 95
  nhgis_county_gisjoin,                   !- Feature Name 96
  String,                                 !- Feature Data Type 96
  G0100470,                               !- Feature Value 96
  nhgis_puma_gisjoin,                     !- Feature Name 97
  String,                                 !- Feature Data Type 97
  G01001700,                              !- Feature Value 97
  state_name,                             !- Feature Name 98
  String,                                 !- Feature Data Type 98
  Alabama,                                !- Feature Value 98
  state_abbreviation,                     !- Feature Name 99
  String,                                 !- Feature Data Type 99
  AL,                                     !- Feature Value 99
  census_division_name,                   !- Feature Name 100
  String,                                 !- Feature Data Type 100
  East South Central,                     !- Feature Value 100
  census_region_name,                     !- Feature Name 101
  String,                                 !- Feature Data Type 101
  South,                                  !- Feature Value 101
  census_division_name_recs,              !- Feature Name 102
  String,                                 !- Feature Data Type 102
  East South Central,                     !- Feature Value 102
  american_housing_survey_region,         !- Feature Name 103
  String,                                 !- Feature Data Type 103
  Non-CBSA East South Central,            !- Feature Value 103
  weather_file_2018,                      !- Feature Name 104
  String,                                 !- Feature Data Type 104
  USA_AL_Centreville.722290_2018.epw,     !- Feature Value 104
  weather_file_TMY3,                      !- Feature Name 105
  String,                                 !- Feature Data Type 105
  Montgomery_Dannelly_Field,              !- Feature Value 105
  climate_zone_building_america,          !- Feature Name 106
  String,                                 !- Feature Data Type 106
  Hot-Humid,                              !- Feature Value 106
  climate_zone_ashrae_2006,               !- Feature Name 107
  String,                                 !- Feature Data Type 107
  3A,                                     !- Feature Value 107
  iso_region,                             !- Feature Name 108
  String,                                 !- Feature Data Type 108
  NotApplicable,                          !- Feature Value 108
  reeds_balancing_area,                   !- Feature Name 109
  String,                                 !- Feature Data Type 109
  90,                                     !- Feature Value 109
  resstock_county_id,                     !- Feature Name 110
  String,                                 !- Feature Data Type 110
  AL&#44 Dallas County,                   !- Feature Value 110
  resstock_puma_id,                       !- Feature Name 111
  String,                                 !- Feature Data Type 111
  AL&#44 01700,                           !- Feature Value 111
  resstock_custom_region,                 !- Feature Name 112
  String,                                 !- Feature Data Type 112
  CR09,                                   !- Feature Value 112
  cambium_grid_region,                    !- Feature Name 113
  String,                                 !- Feature Data Type 113
  SRSOc,                                  !- Feature Value 113
  cluster_id,                             !- Feature Name 114
  String,                                 !- Feature Data Type 114
  85,                                     !- Feature Value 114
  cluster_name,                           !- Feature Name 115
  String,                                 !- Feature Data Type 115
  Rural Climate Zone 3A,                  !- Feature Value 115
  grid_region,                            !- Feature Name 116
  String,                                 !- Feature Data Type 116
  SRSOc,                                  !- Feature Value 116
  Soil Conductivity,                      !- Feature Name 117
  Double,                                 !- Feature Data Type 117
  1.1000000000000001,                     !- Feature Value 117
  Undisturbed Ground Temperature,         !- Feature Name 118
  Double,                                 !- Feature Data Type 118
  17.899999999999999,                     !- Feature Value 118
  wall_as_constructed_template,           !- Feature Name 119
  String,                                 !- Feature Data Type 119
  ComStock DOE Ref 1980-2004,             !- Feature Value 119
  wall_template,                          !- Feature Name 120
  String,                                 !- Feature Data Type 120
  ComStock DOE Ref 1980-2004,             !- Feature Value 120
  roof_as_constructed_template,           !- Feature Name 121
  String,                                 !- Feature Data Type 121
  ComStock DOE Ref 1980-2004,             !- Feature Value 121
  roof_template,                          !- Feature Name 122
  String,                                 !- Feature Data Type 122