
OS:Version,
  {0ffbc908-5f38-42cb-b800-18c102821ef9}, !- Handle
  2.8.1;                                  !- Version Identifier

OS:WeatherFile,
  {6d17ef6a-289c-426f-bb15-d71dac218832}, !- Handle
  Detroit City,                           !- City
  MI,                                     !- State Province Region
  USA,                                    !- Country
  customized weather file,                !- Data Source
  725375,                                 !- WMO Number
  42.41,                                  !- Latitude {deg}
  -83.01,                                 !- Longitude {deg}
  -5,                                     !- Time Zone {hr}
  191,                                    !- Elevation {m}
  file:////weather/USA_MI_Detroit.City.725375_2012.epw, !- Url
  226BE93E;                               !- Checksum

OS:RunPeriodControl:DaylightSavingTime,
  {8a7ad72d-ec82-4b21-ba1c-2d18962f6ecf}, !- Handle
  2nd Sunday in March,                    !- Start Date
  1st Sunday in November;                 !- End Date

OS:YearDescription,
  {76498e0f-0729-4c05-8bef-98558ce6d87f}, !- Handle
  2016,                                   !- Calendar Year
  ,                                       !- Day of Week for Start Day
  ;                                       !- Is Leap Year

OS:Timestep,
  {7e95affe-dd03-4535-97ec-6d70ea5d2399}, !- Handle
  4;                                      !- Number of Timesteps per Hour

OS:RunPeriod,
  {56ef0795-852d-46d6-9fc3-919caf6c7b5b}, !- Handle
  Run Period 1,                           !- Name
  1,                                      !- Begin Month
  1,                                      !- Begin Day of Month
  12,                                     !- End Month
  30,                                     !- End Day of Month
  ,                                       !- Use Weather File Holidays and Special Days
  ,                                       !- Use Weather File Daylight Saving Period
  ,                                       !- Apply Weekend Holiday Rule
  ,                                       !- Use Weather File Rain Indicators
  ,                                       !- Use Weather File Snow Indicators
  ;                                       !- Number of Times Runperiod to be Repeated

OS:Site,
  {a7c6d48b-cd15-4062-8b28-7d44400f3bd4}, !- Handle
  Detroit City_MI_USA,                    !- Name
  42.41,                                  !- Latitude {deg}
  -83.01,                                 !- Longitude {deg}
  -5,                                     !- Time Zone {hr}
  191,                                    !- Elevation {m}
  City;                                   !- Terrain

OS:Site:WaterMainsTemperature,
  {42555240-d465-4ee0-9fc5-2f8b8ac7fa05}, !- Handle
  Correlation,                            !- Calculation Method
  ,                                       !- Temperature Schedule Name
  0,                                      !- Annual Average Outdoor Air Temperature {C}
  0;                                      !- Maximum Difference In Monthly Average Outdoor Air Temperatures {deltaC}

OS:SizingPeriod:DesignDay,
  {b1c13cd9-b328-4900-949a-2a41d2955d64}, !- Handle
  Detroit City Ann Clg .4% Condns DB=>MWB 1, !- Name
  32.6,                                   !- Maximum Dry-Bulb Temperature {C}
  9.7,                                    !- Daily Dry-Bulb Temperature Range {deltaC}
  23,                                     !- Humidity Indicating Conditions at Maximum Dry-Bulb
  99051,                                  !- Barometric Pressure {Pa}
  5,                                      !- Wind Speed {m/s}
  240,                                    !- Wind Direction {deg}
  0,                                      !- Sky Clearness
  0,                                      !- Rain Indicator
  0,                                      !- Snow Indicator
  21,                                     !- Day of Month
  7,                                      !- Month
  SummerDesignDay,                        !- Day Type
  0,                                      !- Daylight Saving Time Indicator
  Wetbulb,                                !- Humidity Indicating Type
  ,                                       !- Humidity Indicating Day Schedule Name
  DefaultMultipliers,                     !- Dry-Bulb Temperature Range Modifier Type
  ,                                       !- Dry-Bulb Temperature Range Modifier Schedule Name
  ASHRAETau,                              !- Solar Model Indicator
  ,                                       !- Beam Solar Day Schedule Name
  ,                                       !- Diffuse Solar Day Schedule Name
  0.406,                                  !- ASHRAE Taub {dimensionless}
  2.227;                                  !- ASHRAE Taud {dimensionless}

OS:SizingPeriod:DesignDay,
  {baea104b-329b-42ee-9753-320f8a2d7111}, !- Handle
  Detroit City Ann Clg .4% Condns WB=>MDB 1, !- Name
  30.2,                                   !- Maximum Dry-Bulb Temperature {C}
  9.7,                                    !- Daily Dry-Bulb Temperature Range {deltaC}
  24.7,                                   !- Humidity Indicating Conditions at Maximum Dry-Bulb
  99051,                                  !- Barometric Pressure {Pa}
  5,                                      !- Wind Speed {m/s}
  240,                                    !- Wind Direction {deg}
  0,                                      !- Sky Clearness
  0,                                      !- Rain Indicator
  0,                                      !- Snow Indicator
  21,                                     !- Day of Month
  7,                                      !- Month
  SummerDesignDay,                        !- Day Type
  0,                                      !- Daylight Saving Time Indicator
  Wetbulb,                                !- Humidity Indicating Type
  ,                                       !- Humidity Indicating Day Schedule Name
  DefaultMultipliers,                     !- Dry-Bulb Temperature Range Modifier Type
  ,                                       !- Dry-Bulb Temperature Range Modifier Schedule Name
  ASHRAETau,                              !- Solar Model Indicator
  ,                                       !- Beam Solar Day Schedule Name
  ,                                       !- Diffuse Solar Day Schedule Name
  0.406,                                  !- ASHRAE Taub {dimensionless}
  2.227;                                  !- ASHRAE Taud {dimensionless}

OS:SizingPeriod:DesignDay,
  {69af25bc-142f-4e28-9459-2a75fefcb7b2}, !- Handle
  Detroit City Ann Clg 1% Condns DB=>MWB 1, !- Name
  31.2,                                   !- Maximum Dry-Bulb Temperature {C}
  9.7,                                    !- Daily Dry-Bulb Temperature Range {deltaC}
  22.3,                                   !- Humidity Indicating Conditions at Maximum Dry-Bulb
  99051,                                  !- Barometric Pressure {Pa}
  5,                                      !- Wind Speed {m/s}
  240,                                    !- Wind Direction {deg}
  0,                                      !- Sky Clearness
  0,                                      !- Rain Indicator
  0,                                      !- Snow Indicator
  21,                                     !- Day of Month
  7,                                      !- Month
  SummerDesignDay,                        !- Day Type
  0,                                      !- Daylight Saving Time Indicator
  Wetbulb,                                !- Humidity Indicating Type
  ,                                       !- Humidity Indicating Day Schedule Name
  DefaultMultipliers,                     !- Dry-Bulb Temperature Range Modifier Type
  ,                                       !- Dry-Bulb Temperature Range Modifier Schedule Name
  ASHRAETau,                              !- Solar Model Indicator
  ,                                       !- Beam Solar Day Schedule Name
  ,                                       !- Diffuse Solar Day Schedule Name
  0.406,                                  !- ASHRAE Taub {dimensionless}
  2.227;                                  !- ASHRAE Taud {dimensionless}

OS:SizingPeriod:DesignDay,
  {77a1445a-8218-4033-9a3c-56dba2354a63}, !- Handle
  Detroit City Ann Clg 2% Condns DP=>MDB 1, !- Name
  25.9,                                   !- Maximum Dry-Bulb Temperature {C}
  9.7,                                    !- Daily Dry-Bulb Temperature Range {deltaC}
  21.2,                                   !- Humidity Indicating Conditions at Maximum Dry-Bulb
  99051,                                  !- Barometric Pressure {Pa}
  5,                                      !- Wind Speed {m/s}
  240,                                    !- Wind Direction {deg}
  0,                                      !- Sky Clearness
  0,                                      !- Rain Indicator
  0,                                      !- Snow Indicator
  21,                                     !- Day of Month
  7,                                      !- Month
  SummerDesignDay,                        !- Day Type
  0,                                      !- Daylight Saving Time Indicator
  Dewpoint,                               !- Humidity Indicating Type
  ,                                       !- Humidity Indicating Day Schedule Name
  DefaultMultipliers,                     !- Dry-Bulb Temperature Range Modifier Type
  ,                                       !- Dry-Bulb Temperature Range Modifier Schedule Name
  ASHRAETau,                              !- Solar Model Indicator
  ,                                       !- Beam Solar Day Schedule Name
  ,                                       !- Diffuse Solar Day Schedule Name
  0.406,                                  !- ASHRAE Taub {dimensionless}
  2.227;                                  !- ASHRAE Taud {dimensionless}

OS:SizingPeriod:DesignDay,
  {58e5a809-cec9-42d2-a760-162f67131594}, !- Handle
  Detroit City Ann Htg 99% Condns DB 1,   !- Name
  -12.5,                                  !- Maximum Dry-Bulb Temperature {C}
  0,                                      !- Daily Dry-Bulb Temperature Range {deltaC}
  -12.5,                                  !- Humidity Indicating Conditions at Maximum Dry-Bulb
  99051,                                  !- Barometric Pressure {Pa}
  4.2,                                    !- Wind Speed {m/s}
  310,                                    !- Wind Direction {deg}
  0,                                      !- Sky Clearness
  0,                                      !- Rain Indicator
  0,                                      !- Snow Indicator
  21,                                     !- Day of Month
  1,                                      !- Month
  WinterDesignDay,                        !- Day Type
  0,                                      !- Daylight Saving Time Indicator
  Wetbulb,                                !- Humidity Indicating Type
  ,                                       !- Humidity Indicating Day Schedule Name
  DefaultMultipliers,                     !- Dry-Bulb Temperature Range Modifier Type
  ,                                       !- Dry-Bulb Temperature Range Modifier Schedule Name
  ASHRAEClearSky;                         !- Solar Model Indicator

OS:SizingPeriod:DesignDay,
  {745ff8d8-58f1-4273-9546-87ad25bc6a16}, !- Handle
  Detroit City Ann Htg 99.6% Condns DB 1, !- Name
  -14.9,                                  !- Maximum Dry-Bulb Temperature {C}
  0,                                      !- Daily Dry-Bulb Temperature Range {deltaC}
  -14.9,                                  !- Humidity Indicating Conditions at Maximum Dry-Bulb
  99051,                                  !- Barometric Pressure {Pa}
  4.2,                                    !- Wind Speed {m/s}
  310,                                    !- Wind Direction {deg}
  0,                                      !- Sky Clearness
  0,                                      !- Rain Indicator
  0,                                      !- Snow Indicator
  21,                                     !- Day of Month
  1,                                      !- Month
  WinterDesignDay,                        !- Day Type
  0,                                      !- Daylight Saving Time Indicator
  Wetbulb,                                !- Humidity Indicating Type
  ,                                       !- Humidity Indicating Day Schedule Name
  DefaultMultipliers,                     !- Dry-Bulb Temperature Range Modifier Type
  ,                                       !- Dry-Bulb Temperature Range Modifier Schedule Name
  ASHRAEClearSky;                         !- Solar Model Indicator

OS:SizingPeriod:DesignDay,
  {b369b404-4bb0-429f-8bc3-387512093385}, !- Handle
  Detroit City Ann Htg Wind 99% Condns WS=>MCDB 1, !- Name
  0,                                      !- Maximum Dry-Bulb Temperature {C}
  0,                                      !- Daily Dry-Bulb Temperature Range {deltaC}
  0,                                      !- Humidity Indicating Conditions at Maximum Dry-Bulb
  99051,                                  !- Barometric Pressure {Pa}
  9.3,                                    !- Wind Speed {m/s}
  310,                                    !- Wind Direction {deg}
  0,                                      !- Sky Clearness
  0,                                      !- Rain Indicator
  0,                                      !- Snow Indicator
  21,                                     !- Day of Month
  1,                                      !- Month
  WinterDesignDay,                        !- Day Type
  0,                                      !- Daylight Saving Time Indicator
  Wetbulb,                                !- Humidity Indicating Type
  ,                                       !- Humidity Indicating Day Schedule Name
  DefaultMultipliers,                     !- Dry-Bulb Temperature Range Modifier Type
  ,                                       !- Dry-Bulb Temperature Range Modifier Schedule Name
  ASHRAEClearSky;                         !- Solar Model Indicator

OS:SizingPeriod:DesignDay,
  {37d4b58f-623f-4078-904c-d677401db3f6}, !- Handle
  Detroit City April .4% Condns DB=>MCWB 1, !- Name
  27.8,                                   !- Maximum Dry-Bulb Temperature {C}
  10,                                     !- Daily Dry-Bulb Temperature Range {deltaC}
  17.6,                                   !- Humidity Indicating Conditions at Maximum Dry-Bulb
  99051,                                  !- Barometric Pressure {Pa}
  5,                                      !- Wind Speed {m/s}
  240,                                    !- Wind Direction {deg}
  0,                                      !- Sky Clearness
  0,                                      !- Rain Indicator
  0,                                      !- Snow Indicator
  21,                                     !- Day of Month
  4,                                      !- Month
  SummerDesignDay,                        !- Day Type
  0,                                      !- Daylight Saving Time Indicator
  Wetbulb,                                !- Humidity Indicating Type
  ,                                       !- Humidity Indicating Day Schedule Name
  DefaultMultipliers,                     !- Dry-Bulb Temperature Range Modifier Type
  ,                                       !- Dry-Bulb Temperature Range Modifier Schedule Name
  ASHRAETau,                              !- Solar Model Indicator
  ,                                       !- Beam Solar Day Schedule Name
  ,                                       !- Diffuse Solar Day Schedule Name
  0.371,                                  !- ASHRAE Taub {dimensionless}
  2.305;                                  !- ASHRAE Taud {dimensionless}

OS:SizingPeriod:DesignDay,
  {4d11de92-0251-4df7-ae35-c61c25fb3022}, !- Handle
  Detroit City April .4% Condns WB=>MCDB 1, !- Name
  25.4,                                   !- Maximum Dry-Bulb Temperature {C}
  10,                                     !- Daily Dry-Bulb Temperature Range {deltaC}
  19,                                     !- Humidity Indicating Conditions at Maximum Dry-Bulb
  99051,                                  !- Barometric Pressure {Pa}
  5,                                      !- Wind Speed {m/s}
  240,                                    !- Wind Direction {deg}
  0,                                      !- Sky Clearness
  0,                                      !- Rain Indicator
  0,                                      !- Snow Indicator
  21,                                     !- Day of Month
  4,                                      !- Month
  SummerDesignDay,                        !- Day Type
  0,                                      !- Daylight Saving Time Indicator
  Wetbulb,                                !- Humidity Indicating Type
  ,                                       !- Humidity Indicating Day Schedule Name
  DefaultMultipliers,                     !- Dry-Bulb Temperature Range Modifier Type
  ,                                       !- Dry-Bulb Temperature Range Modifier Schedule Name
  ASHRAETau,                              !- Solar Model Indicator
  ,                                       !- Beam Solar Day Schedule Name
  ,                                       !- Diffuse Solar Day Schedule Name
  0.371,                                  !- ASHRAE Taub {dimensionless}
  2.305;                                  !- ASHRAE Taud {dimensionless}

OS:SizingPeriod:DesignDay,
  {e18aa4f3-3553-41e7-be71-d0e029f31ebc}, !- Handle
  Detroit City August .4% Condns DB=>MCWB 1, !- Name
  33.8,                                   !- Maximum Dry-Bulb Temperature {C}
  9.1,                                    !- Daily Dry-Bulb Temperature Range {deltaC}
  24.6,                                   !- Humidity Indicating Conditions at Maximum Dry-Bulb
  99051,                                  !- Barometric Pressure {Pa}
  5,                                      !- Wind Speed {m/s}
  240,                                    !- Wind Direction {deg}
  0,                                      !- Sky Clearness
  0,                                      !- Rain Indicator
  0,                                      !- Snow Indicator
  21,                                     !- Day of Month
  8,                                      !- Month
  SummerDesignDay,                        !- Day Type
  0,                                      !- Daylight Saving Time Indicator
  Wetbulb,                                !- Humidity Indicating Type
  ,                                       !- Humidity Indicating Day Schedule Name
  DefaultMultipliers,                     !- Dry-Bulb Temperature Range Modifier Type
  ,                                       !- Dry-Bulb Temperature Range Modifier Schedule Name
  ASHRAETau,                              !- Solar Model Indicator
  ,                                       !- Beam Solar Day Schedule Name
  ,                                       !- Diffuse Solar Day Schedule Name
  0.414,                                  !- ASHRAE Taub {dimensionless}
  2.242;                                  !- ASHRAE Taud {dimensionless}

OS:SizingPeriod:DesignDay,
  {1a461416-dbb2-4f6e-a389-f54407c8d513}, !- Handle
  Detroit City August .4% Condns WB=>MCDB 1, !- Name
  32,                                     !- Maximum Dry-Bulb Temperature {C}
  9.1,                                    !- Daily Dry-Bulb Temperature Range {deltaC}
  26.2,                                   !- Humidity Indicating Conditions at Maximum Dry-Bulb
  99051,                                  !- Barometric Pressure {Pa}
  5,                                      !- Wind Speed {m/s}
  240,                                    !- Wind Direction {deg}
  0,                                      !- Sky Clearness
  0,                                      !- Rain Indicator
  0,                                      !- Snow Indicator
  21,                                     !- Day of Month
  8,                                      !- Month
  SummerDesignDay,                        !- Day Type
  0,                                      !- Daylight Saving Time Indicator
  Wetbulb,                                !- Humidity Indicating Type
  ,                                       !- Humidity Indicating Day Schedule Name
  DefaultMultipliers,                     !- Dry-Bulb Temperature Range Modifier Type
  ,                                       !- Dry-Bulb Temperature Range Modifier Schedule Name
  ASHRAETau,                              !- Solar Model Indicator
  ,                                       !- Beam Solar Day Schedule Name
  ,                                       !- Diffuse Solar Day Schedule Name
  0.414,                                  !- ASHRAE Taub {dimensionless}
  2.242;                                  !- ASHRAE Taud {dimensionless}

OS:SizingPeriod:DesignDay,
  {d29a27f2-0a83-4aec-a1e5-f1bf1c26b985}, !- Handle
  Detroit City December .4% Condns DB=>MCWB 1, !- Name
  15.1,                                   !- Maximum Dry-Bulb Temperature {C}
  5.8,                                    !- Daily Dry-Bulb Temperature Range {deltaC}
  12.5,                                   !- Humidity Indicating Conditions at Maximum Dry-Bulb
  99051,                                  !- Barometric Pressure {Pa}
  5,                                      !- Wind Speed {m/s}
  240,                                    !- Wind Direction {deg}
  0,                                      !- Sky Clearness
  0,                                      !- Rain Indicator
  0,                                      !- Snow Indicator
  21,                                     !- Day of Month
  12,                                     !- Month
  SummerDesignDay,                        !- Day Type
  0,                                      !- Daylight Saving Time Indicator
  Wetbulb,                                !- Humidity Indicating Type
  ,                                       !- Humidity Indicating Day Schedule Name
  DefaultMultipliers,                     !- Dry-Bulb Temperature Range Modifier Type
  ,                                       !- Dry-Bulb Temperature Range Modifier Schedule Name
  ASHRAETau,                              !- Solar Model Indicator
  ,                                       !- Beam Solar Day Schedule Name
  ,                                       !- Diffuse Solar Day Schedule Name
  0.29,                                   !- ASHRAE Taub {dimensionless}
  2.563;                                  !- ASHRAE Taud {dimensionless}

OS:SizingPeriod:DesignDay,
  {8d639e84-fb6d-478c-a55c-524ed9d3d9f6}, !- Handle
  Detroit City December .4% Condns WB=>MCDB 1, !- Name
  14.4,                                   !- Maximum Dry-Bulb Temperature {C}
  5.8,                                    !- Daily Dry-Bulb Temperature Range {deltaC}
  12.8,                                   !- Humidity Indicating Conditions at Maximum Dry-Bulb
  99051,                                  !- Barometric Pressure {Pa}
  5,                                      !- Wind Speed {m/s}
  240,                                    !- Wind Direction {deg}
  0,                                      !- Sky Clearness
  0,                                      !- Rain Indicator
  0,                                      !- Snow Indicator
  21,                                     !- Day of Month
  12,                                     !- Month
  SummerDesignDay,                        !- Day Type
  0,                                      !- Daylight Saving Time Indicator
  Wetbulb,                                !- Humidity Indicating Type
  ,                                       !- Humidity Indicating Day Schedule Name
  DefaultMultipliers,                     !- Dry-Bulb Temperature Range Modifier Type
  ,                                       !- Dry-Bulb Temperature Range Modifier Schedule Name
  ASHRAETau,                              !- Solar Model Indicator
  ,                                       !- Beam Solar Day Schedule Name
  ,                                       !- Diffuse Solar Day Schedule Name
  0.29,                                   !- ASHRAE Taub {dimensionless}
  2.563;                                  !- ASHRAE Taud {dimensionless}

OS:SizingPeriod:DesignDay,
  {be8d2b96-baa2-467c-b0ad-ca83a26091e2}, !- Handle
  Detroit City February .4% Condns DB=>MCWB 1, !- Name
  13.9,                                   !- Maximum Dry-Bulb Temperature {C}
  7,                                      !- Daily Dry-Bulb Temperature Range {deltaC}
  9.8,                                    !- Humidity Indicating Conditions at Maximum Dry-Bulb
  99051,                                  !- Barometric Pressure {Pa}
  5,                                      !- Wind Speed {m/s}
  240,                                    !- Wind Direction {deg}
  0,                                      !- Sky Clearness
  0,                                      !- Rain Indicator
  0,                                      !- Snow Indicator
  21,                                     !- Day of Month
  2,                                      !- Month
  SummerDesignDay,                        !- Day Type
  0,                                      !- Daylight Saving Time Indicator
  Wetbulb,                                !- Humidity Indicating Type
  ,                                       !- Humidity Indicating Day Schedule Name
  DefaultMultipliers,                     !- Dry-Bulb Temperature Range Modifier Type
  ,                                       !- Dry-Bulb Temperature Range Modifier Schedule Name
  ASHRAETau,                              !- Solar Model Indicator
  ,                                       !- Beam Solar Day Schedule Name
  ,                                       !- Diffuse Solar Day Schedule Name
  0.313,                                  !- ASHRAE Taub {dimensionless}
  2.385;                                  !- ASHRAE Taud {dimensionless}

OS:SizingPeriod:DesignDay,
  {5551c0b0-bba5-4e24-a65b-9b541628cd09}, !- Handle
  Detroit City February .4% Condns WB=>MCDB 1, !- Name
  12.8,                                   !- Maximum Dry-Bulb Temperature {C}
  7,                                      !- Daily Dry-Bulb Temperature Range {deltaC}
  11.1,                                   !- Humidity Indicating Conditions at Maximum Dry-Bulb
  99051,                                  !- Barometric Pressure {Pa}
  5,                                      !- Wind Speed {m/s}
  240,                                    !- Wind Direction {deg}
  0,                                      !- Sky Clearness
  0,                                      !- Rain Indicator
  0,                                      !- Snow Indicator
  21,                                     !- Day of Month
  2,                                      !- Month
  SummerDesignDay,                        !- Day Type
  0,                                      !- Daylight Saving Time Indicator
  Wetbulb,                                !- Humidity Indicating Type
  ,                                       !- Humidity Indicating Day Schedule Name
  DefaultMultipliers,                     !- Dry-Bulb Temperature Range Modifier Type
  ,                                       !- Dry-Bulb Temperature Range Modifier Schedule Name
  ASHRAETau,                              !- Solar Model Indicator
  ,                                       !- Beam Solar Day Schedule Name
  ,                                       !- Diffuse Solar Day Schedule Name
  0.313,                                  !- ASHRAE Taub {dimensionless}
  2.385;                                  !- ASHRAE Taud {dimensionless}

OS:SizingPeriod:DesignDay,
  {15270f95-af4d-4031-be10-31d202ebeda5}, !- Handle
  Detroit City January .4% Condns DB=>MCWB 1, !- Name
  13.8,                                   !- Maximum Dry-Bulb Temperature {C}
  6.4,                                    !- Daily Dry-Bulb Temperature Range {deltaC}
  11.1,                                   !- Humidity Indicating Conditions at Maximum Dry-Bulb
  99051,                                  !- Barometric Pressure {Pa}
  5,                                      !- Wind Speed {m/s}
  240,                                    !- Wind Direction {deg}
  0,                                      !- Sky Clearness
  0,                                      !- Rain Indicator
  0,                                      !- Snow Indicator
  21,                                     !- Day of Month
  1,                                      !- Month
  SummerDesignDay,                        !- Day Type
  0,                                      !- Daylight Saving Time Indicator
  Wetbulb,                                !- Humidity Indicating Type
  ,                                       !- Humidity Indicating Day Schedule Name
  DefaultMultipliers,                     !- Dry-Bulb Temperature Range Modifier Type
  ,                                       !- Dry-Bulb Temperature Range Modifier Schedule Name
  ASHRAETau,                              !- Solar Model Indicator
  ,                                       !- Beam Solar Day Schedule Name
  ,                                       !- Diffuse Solar Day Schedule Name
  0.295,                                  !- ASHRAE Taub {dimensionless}
  2.438;                                  !- ASHRAE Taud {dimensionless}

OS:SizingPeriod:DesignDay,
  {6cce5fa6-d30d-4161-bdaa-cf55afed5ac0}, !- Handle
  Detroit City January .4% Condns WB=>MCDB 1, !- Name
  13.1,                                   !- Maximum Dry-Bulb Temperature {C}
  6.4,                                    !- Daily Dry-Bulb Temperature Range {deltaC}
  12,                                     !- Humidity Indicating Conditions at Maximum Dry-Bulb