
OS:Version,
  {934afa87-326d-422a-a4f2-c5966d3d201e}, !- Handle
  3.6.1;                                  !- Version Identifier

OS:Facility,
  {a7709f21-d6d6-4b79-bcda-048bac2784e7}; !- Handle

OS:Site,
  {3fc0359d-1ce4-4823-844e-449874fbb490}, !- Handle
  Chicago Ohare Intl Ap,                  !- Name
  41.98,                                  !- Latitude {deg}
  -87.92,                                 !- Longitude {deg}
  -6,                                     !- Time Zone {hr}
  201,                                    !- Elevation {m}
  City;                                   !- Terrain

OS:SimulationControl,
  {4673f174-84c6-45bd-a617-cbe225ee8fc4}, !- Handle
  ,                                       !- Do Zone Sizing Calculation
  ,                                       !- Do System Sizing Calculation
  ,                                       !- Do Plant Sizing Calculation
  No,                                     !- Run Simulation for Sizing Periods
  Yes,                                    !- Run Simulation for Weather File Run Periods
  ,                                       !- Loads Convergence Tolerance Value {W}
  ,                                       !- Temperature Convergence Tolerance Value {deltaC}
  ,                                       !- Solar Distribution
  ,                                       !- Maximum Number of Warmup Days
  ,                                       !- Minimum Number of Warmup Days
  No,                                     !- Do HVAC Sizing Simulation for Sizing Periods
  1;                                      !- Maximum Number of HVAC Sizing Simulation Passes

OS:Sizing:Parameters,
  {2550241d-ace5-407e-93b5-30b8400a16d9}, !- Handle
  1.25,                                   !- Heating Sizing Factor
  1.15;                                   !- Cooling Sizing Factor

OS:Timestep,
  {cb528a79-718c-4141-867e-14ffa357d501}, !- Handle
  4;                                      !- Number of Timesteps per Hour

OS:ShadowCalculation,
  {5ad15fca-f670-421f-90b3-7610098ebdef}, !- Handle
  PolygonClipping,                        !- Shading Calculation Method
  ,                                       !- Shading Calculation Update Frequency Method
  20,                                     !- Shading Calculation Update Frequency
  15000,                                  !- Maximum Figures in Shadow Overlap Calculations
  ,                                       !- Polygon Clipping Algorithm
  512,                                    !- Pixel Counting Resolution
  ,                                       !- Sky Diffuse Modeling Algorithm
  No,                                     !- Output External Shading Calculation Results
  No,                                     !- Disable Self-Shading Within Shading Zone Groups
  No;                                     !- Disable Self-Shading From Shading Zone Groups to Other Zones

OS:HeatBalanceAlgorithm,
  {1e60abf3-93d7-4df0-ae67-c1dc811a1453}, !- Handle
  ConductionTransferFunction,             !- Algorithm
  200;                                    !- Surface Temperature Upper Limit {C}

OS:RunPeriod,
  {e5abfe04-0d14-4da5-a8bd-9f4549cc109b}, !- Handle
  Run Period 1,                           !- Name
  1,                                      !- Begin Month
  1,                                      !- Begin Day of Month
  12,                                     !- End Month
  31,                                     !- End Day of Month
  ,                                       !- Use Weather File Holidays and Special Days
  ,                                       !- Use Weather File Daylight Saving Period
  ,                                       !- Apply Weekend Holiday Rule
  ,                                       !- Use Weather File Rain Indicators
  ,                                       !- Use Weather File Snow Indicators
  ;                                       !- Number of Times Runperiod to be Repeated

OS:LifeCycleCost:Parameters,
  {27a2b1b0-2a3f-4bee-9899-b0f329a4f4a2}, !- Handle
  ,                                       !- Analysis Type
  ,                                       !- Discounting Convention
  ,                                       !- Inflation Approach
  ,                                       !- Real Discount Rate
  ,                                       !- Nominal Discount Rate
  ,                                       !- Inflation
  ,                                       !- Base Date Month
  ,                                       !- Base Date Year
  ,                                       !- Service Date Month
  ,                                       !- Service Date Year
  ;                                       !- Length of Study Period in Years

OS:Site:WaterMainsTemperature,
  {8a1af827-5bd9-4243-9204-14e21d25729b}, !- Handle
  Correlation,                            !- Calculation Method
  ,                                       !- Temperature Schedule Name
  20.365,                                 !- Annual Average Outdoor Air Temperature {C}
  18.17;                                  !- Maximum Difference In Monthly Average Outdoor Air Temperatures {deltaC}

OS:ClimateZones,
  {ba05641f-d287-4b1d-91ac-434a0eee8c00}, !- Handle
  ASHRAE,                                 !- Climate Zone Institution Name 1
  ANSI/ASHRAE Standard 169,               !- Climate Zone Document Name 1
  2006,                                   !- Climate Zone Document Year 1
  ASHRAE 169-2013-2A,                     !- Climate Zone Value 1
  CEC,                                    !- Climate Zone Institution Name 2
  California Climate Zone Descriptions,   !- Climate Zone Document Name 2
  1995,                                   !- Climate Zone Document Year 2
  ;                                       !- Climate Zone Value 2

OS:Building,
  {9cfe9123-320f-4833-a362-bf5a80b5a89c}, !- Handle
  ComStock 90.1-2007|RetailStandalone,    !- Name
  ,                                       !- Building Sector Type
  45,                                     !- North Axis {deg}
  ,                                       !- Nominal Floor to Floor Height {m}
  ,                                       !- Space Type Name
  {8ed27faa-02a9-4048-a766-8f29d64b4705}, !- Default Construction Set Name
  {9b424fda-c3f7-4c23-b04d-a1bd987b9cc2}, !- Default Schedule Set Name
  ,                                       !- Standards Number of Stories
  ,                                       !- Standards Number of Above Ground Stories
  ,                                       !- Standards Template
  Retail;                                 !- Standards Building Type

OS:AdditionalProperties,
  {ca554a80-25cd-49db-90b4-cbf48e9d0cf3}, !- Handle
  {9cfe9123-320f-4833-a362-bf5a80b5a89c}, !- Object Name
  grid_region,                            !- Feature Name 1
  String,                                 !- Feature Data Type 1
  SRSOc,                                  !- Feature Value 1
  hvac_system_type,                       !- Feature Name 2
  String,                                 !- Feature Data Type 2
  PTHP,                                   !- Feature Value 2
  wall_as_constructed_template,           !- Feature Name 3
  String,                                 !- Feature Data Type 3
  ComStock 90.1-2007,                     !- Feature Value 3
  wall_template,                          !- Feature Name 4
  String,                                 !- Feature Data Type 4
  ComStock 90.1-2007,                     !- Feature Value 4
  roof_as_constructed_template,           !- Feature Name 5
  String,                                 !- Feature Data Type 5
  ComStock 90.1-2007,                     !- Feature Value 5
  roof_template,                          !- Feature Name 6
  String,                                 !- Feature Data Type 6
  ComStock 90.1-2007,                     !- Feature Value 6
  exterior_lighting_as_constructed_template, !- Feature Name 7
  String,                                 !- Feature Data Type 7
  ComStock 90.1-2007,                     !- Feature Value 7
  exterior_lighting_template,             !- Feature Name 8
  String,                                 !- Feature Data Type 8
  ComStock 90.1-2007,                     !- Feature Value 8
  interior_equipment_as_constructed_template, !- Feature Name 9
  String,                                 !- Feature Data Type 9
  ComStock 90.1-2007,                     !- Feature Value 9
  interior_equipment_template,            !- Feature Name 10
  String,                                 !- Feature Data Type 10
  ComStock 90.1-2007,                     !- Feature Value 10
  service_water_heating_as_constructed_template, !- Feature Name 11
  String,                                 !- Feature Data Type 11
  ComStock 90.1-2007,                     !- Feature Value 11
  service_water_heating_template,         !- Feature Name 12
  String,                                 !- Feature Data Type 12
  ComStock 90.1-2007,                     !- Feature Value 12
  hvac_as_constructed_template,           !- Feature Name 13
  String,                                 !- Feature Data Type 13
  ComStock 90.1-2007,                     !- Feature Value 13
  hvac_template,                          !- Feature Name 14
  String,                                 !- Feature Data Type 14
  ComStock 90.1-2007;                     !- Feature Value 14

OS:SpaceType,
  {557ce639-b618-4c69-a52d-42a14250daa9}, !- Handle
  Retail Entry - ComStock 90.1-2007,      !- Name
  ,                                       !- Default Construction Set Name
  {7466262e-d719-451c-932b-f9c8a8c6d2a0}, !- Default Schedule Set Name
  {52e78d5b-4688-4cea-87a1-134c1b553f81}, !- Group Rendering Name
  {88eaf53d-d9e4-449b-9688-b84230185183}, !- Design Specification Outdoor Air Object Name
  ,                                       !- Standards Template
  Retail,                                 !- Standards Building Type
  Entry;                                  !- Standards Space Type

OS:Rendering:Color,
  {52e78d5b-4688-4cea-87a1-134c1b553f81}, !- Handle
  Retail Entry,                           !- Name
  169,                                    !- Rendering Red Value
  31,                                     !- Rendering Green Value
  31;                                     !- Rendering Blue Value

OS:SpaceType,
  {8e955242-4b1c-4460-93f0-0c6aa23fed8b}, !- Handle
  Retail Point_of_Sale - ComStock 90.1-2007, !- Name
  ,                                       !- Default Construction Set Name
  {a6e73e03-f7d1-4b41-af54-20e0d95a59b0}, !- Default Schedule Set Name
  {b1d2699a-aaed-4172-af0e-0ce2f1543aa1}, !- Group Rendering Name
  {636280fc-84d0-46f8-a1bd-a0a0765680c8}, !- Design Specification Outdoor Air Object Name
  ,                                       !- Standards Template
  Retail,                                 !- Standards Building Type
  Point_of_Sale;                          !- Standards Space Type

OS:Rendering:Color,
  {b1d2699a-aaed-4172-af0e-0ce2f1543aa1}, !- Handle
  Retail Point_of_Sale,                   !- Name
  171,                                    !- Rendering Red Value
  222,                                    !- Rendering Green Value
  78;                                     !- Rendering Blue Value

OS:SpaceType,
  {5d641cb4-ec22-4d42-9f0f-3133d0eff968}, !- Handle
  Retail Back_Space - ComStock 90.1-2007, !- Name
  ,                                       !- Default Construction Set Name
  {0e441a81-25f8-424f-8da8-2cf1fe5f1376}, !- Default Schedule Set Name
  {0fc089f7-3b3c-4058-9b21-37e0c4f7919c}, !- Group Rendering Name
  {37ed6d66-418e-43bb-b3a2-5a38dd4c24d0}, !- Design Specification Outdoor Air Object Name
  ,                                       !- Standards Template
  Retail,                                 !- Standards Building Type
  Back_Space;                             !- Standards Space Type

OS:Rendering:Color,
  {0fc089f7-3b3c-4058-9b21-37e0c4f7919c}, !- Handle
  Retail Back_Space,                      !- Name
  120,                                    !- Rendering Red Value
  149,                                    !- Rendering Green Value
  230;                                    !- Rendering Blue Value

OS:SpaceType,
  {5c459131-06a8-4c84-9047-ba4d25769a5a}, !- Handle
  Retail Retail - ComStock 90.1-2007,     !- Name
  ,                                       !- Default Construction Set Name
  {4fb2c285-0939-4ad1-8555-796a006410e6}, !- Default Schedule Set Name
  {8d2a6efb-fc1f-4f04-a2a7-df2968a3ae11}, !- Group Rendering Name
  {e5de5e21-5967-48a8-afc5-ddae3130ec83}, !- Design Specification Outdoor Air Object Name
  ,                                       !- Standards Template
  Retail,                                 !- Standards Building Type
  Retail;                                 !- Standards Space Type

OS:Rendering:Color,
  {8d2a6efb-fc1f-4f04-a2a7-df2968a3ae11}, !- Handle
  Retail Retail,                          !- Name
  171,                                    !- Rendering Red Value
  222,                                    !- Rendering Green Value
  78;                                     !- Rendering Blue Value

OS:BuildingStory,
  {5a172e90-8642-4343-b3a9-c5f07e4918e2}, !- Handle
  Story Ground,                           !- Name
  0,                                      !- Nominal Z Coordinate {m}
  6.096,                                  !- Nominal Floor to Floor Height {m}
  ,                                       !- Default Construction Set Name
  ,                                       !- Default Schedule Set Name
  ;                                       !- Group Rendering Name

OS:Space,
  {95e9431f-7d26-4163-b5ab-e28d62600c46}, !- Handle
  Retail Retail  - Story Ground,          !- Name
  {5c459131-06a8-4c84-9047-ba4d25769a5a}, !- Space Type Name
  ,                                       !- Default Construction Set Name
  ,                                       !- Default Schedule Set Name
  -0,                                     !- Direction of Relative North {deg}
  -18.6651118400078,                      !- X Origin {m}
  -3.73302236800156,                      !- Y Origin {m}
  0,                                      !- Z Origin {m}
  {5a172e90-8642-4343-b3a9-c5f07e4918e2}, !- Building Story Name
  {414eab2b-136a-4287-973e-b415faf3a213}; !- Thermal Zone Name

OS:Surface,
  {e0823607-8629-4fcf-9a62-d88a48bd4747}, !- Handle
  Surface 1,                              !- Name
  Floor,                                  !- Surface Type
  {da7aa262-cdf6-4d2f-aaad-0e49831f5cf2}, !- Construction Name
  {95e9431f-7d26-4163-b5ab-e28d62600c46}, !- Space Name
  GroundFCfactorMethod,                   !- Outside Boundary Condition
  ,                                       !- Outside Boundary Condition Object
  NoSun,                                  !- Sun Exposure
  NoWind,                                 !- Wind Exposure
  ,                                       !- View Factor to Ground
  ,                                       !- Number of Vertices
  2.1316282072803e-14, 3.5527136788005e-15, 0, !- X,Y,Z Vertex 1 {m}
  2.1316282072803e-14, 7.46604473600312, 0, !- X,Y,Z Vertex 2 {m}
  28.5016257796919, 7.46604473600312, 0,  !- X,Y,Z Vertex 3 {m}
  28.5016257796919, 3.5527136788005e-15, 0; !- X,Y,Z Vertex 4 {m}

OS:Surface,
  {6e9d1e22-ac10-413b-9a56-e6800c1979d7}, !- Handle
  Surface 2,                              !- Name
  Wall,                                   !- Surface Type
  ,                                       !- Construction Name
  {95e9431f-7d26-4163-b5ab-e28d62600c46}, !- Space Name
  Outdoors,                               !- Outside Boundary Condition
  ,                                       !- Outside Boundary Condition Object
  SunExposed,                             !- Sun Exposure
  WindExposed,                            !- Wind Exposure
  ,                                       !- View Factor to Ground
  ,                                       !- Number of Vertices
  2.1316282072803e-14, 7.46604473600312, 6.096, !- X,Y,Z Vertex 1 {m}
  2.1316282072803e-14, 7.46604473600312, 0, !- X,Y,Z Vertex 2 {m}
  2.1316282072803e-14, 3.5527136788005e-15, 0, !- X,Y,Z Vertex 3 {m}
  2.1316282072803e-14, 3.5527136788005e-15, 6.096; !- X,Y,Z Vertex 4 {m}

OS:Surface,
  {584952ae-aff1-451a-a681-f9de706a78da}, !- Handle
  Surface 3,                              !- Name
  Wall,                                   !- Surface Type
  ,                                       !- Construction Name
  {95e9431f-7d26-4163-b5ab-e28d62600c46}, !- Space Name
  Outdoors,                               !- Outside Boundary Condition
  ,                                       !- Outside Boundary Condition Object
  SunExposed,                             !- Sun Exposure
  WindExposed,                            !- Wind Exposure
  ,                                       !- View Factor to Ground
  ,                                       !- Number of Vertices
  28.5016257796919, 7.46604473600312, 6.096, !- X,Y,Z Vertex 1 {m}
  28.5016257796919, 7.46604473600312, 0,  !- X,Y,Z Vertex 2 {m}
  2.1316282072803e-14, 7.46604473600312, 0, !- X,Y,Z Vertex 3 {m}
  2.1316282072803e-14, 7.46604473600312, 6.096; !- X,Y,Z Vertex 4 {m}

OS:Surface,
  {177c7533-09dc-4777-911e-297c0417b4b7}, !- Handle
  Surface 4,                              !- Name
  Wall,                                   !- Surface Type
  ,                                       !- Construction Name
  {95e9431f-7d26-4163-b5ab-e28d62600c46}, !- Space Name
  Surface,                                !- Outside Boundary Condition
  {2c64670a-9540-49d3-87a0-f0bf65adad17}, !- Outside Boundary Condition Object
  NoSun,                                  !- Sun Exposure
  NoWind,                                 !- Wind Exposure
  ,                                       !- View Factor to Ground
  ,                                       !- Number of Vertices
  28.5016257796919, 3.5527136788005e-15, 6.096, !- X,Y,Z Vertex 1 {m}
  28.5016257796919, 3.5527136788005e-15, 0, !- X,Y,Z Vertex 2 {m}
  28.5016257796919, 7.46604473600312, 0,  !- X,Y,Z Vertex 3 {m}
  28.5016257796919, 7.46604473600312, 6.096; !- X,Y,Z Vertex 4 {m}

OS:Surface,
  {22bf2b63-33ea-442e-b345-099a51f5bba7}, !- Handle
  Surface 5,                              !- Name
  Wall,                                   !- Surface Type
  ,                                       !- Construction Name
  {95e9431f-7d26-4163-b5ab-e28d62600c46}, !- Space Name
  Outdoors,                               !- Outside Boundary Condition
  ,                                       !- Outside Boundary Condition Object
  SunExposed,                             !- Sun Exposure
  WindExposed,                            !- Wind Exposure
  ,                                       !- View Factor to Ground
  ,                                       !- Number of Vertices
  2.1316282072803e-14, 3.5527136788005e-15, 6.096, !- X,Y,Z Vertex 1 {m}
  2.1316282072803e-14, 3.5527136788005e-15, 0, !- X,Y,Z Vertex 2 {m}
  28.5016257796919, 3.5527136788005e-15, 0, !- X,Y,Z Vertex 3 {m}
  28.5016257796919, 3.5527136788005e-15, 6.096; !- X,Y,Z Vertex 4 {m}

OS:Surface,
  {990bc692-5eb0-4a29-9428-4c3034653fc8}, !- Handle
  Surface 6,                              !- Name
  RoofCeiling,                            !- Surface Type
  ,                                       !- Construction Name
  {95e9431f-7d26-4163-b5ab-e28d62600c46}, !- Space Name
  Outdoors,                               !- Outside Boundary Condition
  ,                                       !- Outside Boundary Condition Object
  SunExposed,                             !- Sun Exposure
  WindExposed,                            !- Wind Exposure
  ,                                       !- View Factor to Ground
  ,                                       !- Number of Vertices
  28.5016257796919, 3.5527136788005e-15, 6.096, !- X,Y,Z Vertex 1 {m}
  28.5016257796919, 7.46604473600312, 6.096, !- X,Y,Z Vertex 2 {m}
  2.1316282072803e-14, 7.46604473600312, 6.096, !- X,Y,Z Vertex 3 {m}
  2.1316282072803e-14, 3.5527136788005e-15, 6.096; !- X,Y,Z Vertex 4 {m}

OS:ThermalZone,
  {414eab2b-136a-4287-973e-b415faf3a213}, !- Handle
  Zone Retail Retail  - Story Ground,     !- Name
  1,                                      !- Multiplier
  ,                                       !- Ceiling Height {m}
  ,                                       !- Volume {m3}
  ,                                       !- Floor Area {m2}
  ,                                       !- Zone Inside Convection Algorithm
  ,                                       !- Zone Outside Convection Algorithm
  ,                                       !- Zone Conditioning Equipment List Name
  {9f398893-6b43-4882-b0e1-b0445baa77db}, !- Zone Air Inlet Port List
  {6bb9d988-db19-48b0-a1dc-265e7fbd95f8}, !- Zone Air Exhaust Port List
  {7a3ddbcc-a38d-4cf3-a2d0-c8dfb8901846}, !- Zone Air Node Name
  {e66587a1-9026-48d5-8aa5-92279f6ab5c0}, !- Zone Return Air Port List
  ,                                       !- Primary Daylighting Control Name
  ,                                       !- Fraction of Zone Controlled by Primary Daylighting Control
  ,                                       !- Secondary Daylighting Control Name
  ,                                       !- Fraction of Zone Controlled by Secondary Daylighting Control
  ,                                       !- Illuminance Map Name
  {f6ca4099-0dc9-461e-a7fd-21067eba1bcf}, !- Group Rendering Name
  {07c794a7-04ea-46c3-986b-5949c03154c9}, !- Thermostat Name
  No;                                     !- Use Ideal Air Loads

OS:Node,
  {8c04c79e-070d-42c4-a0b6-9978847a3e7d}, !- Handle
  Zone Retail Retail  - Story Ground Zone Air Node, !- Name
  {7a3ddbcc-a38d-4cf3-a2d0-c8dfb8901846}, !- Inlet Port
  ;                                       !- Outlet Port

OS:Connection,
  {7a3ddbcc-a38d-4cf3-a2d0-c8dfb8901846}, !- Handle
  {414eab2b-136a-4287-973e-b415faf3a213}, !- Source Object
  11,                                     !- Outlet Port
  {8c04c79e-070d-42c4-a0b6-9978847a3e7d}, !- Target Object
  2;                                      !- Inlet Port

OS:PortList,
  {9f398893-6b43-4882-b0e1-b0445baa77db}, !- Handle
  {414eab2b-136a-4287-973e-b415faf3a213}, !- HVAC Component
  {ce904658-19c5-40ab-9dbe-17dd41f46205}; !- Port 1

OS:PortList,
  {6bb9d988-db19-48b0-a1dc-265e7fbd95f8}, !- Handle
  {414eab2b-136a-4287-973e-b415faf3a213}; !- HVAC Component

OS:PortList,
  {e66587a1-9026-48d5-8aa5-92279f6ab5c0}, !- Handle
  {414eab2b-136a-4287-973e-b415faf3a213}, !- HVAC Component
  {32bdc715-6553-4064-93dd-9064f690d9e8}; !- Port 1

OS:Sizing:Zone,
  {335118fc-4741-48f3-8e2b-153b3e1e49e1}, !- Handle
  {414eab2b-136a-4287-973e-b415faf3a213}, !- Zone or ZoneList Name
  SupplyAirTemperature,                   !- Zone Cooling Design Supply Air Temperature Input Method
  13.8888888888889,                       !- Zone Cooling Design Supply Air Temperature {C}
  11.11,                                  !- Zone Cooling Design Supply Air Temperature Difference {deltaC}
  SupplyAirTemperature,                   !- Zone Heating Design Supply Air Temperature Input Method
  50.0000000000001,                       !- Zone Heating Design Supply Air Temperature {C}
  11.11,                                  !- Zone Heating Design Supply Air Temperature Difference {deltaC}
  0.008,                                  !- Zone Cooling Design Supply Air Humidity Ratio {kg-H2O/kg-air}
  0.008,                                  !- Zone Heating Design Supply Air Humidity Ratio {kg-H2O/kg-air}
  ,                                       !- Zone Heating Sizing Factor
  ,                                       !- Zone Cooling Sizing Factor
  DesignDay,                              !- Cooling Design Air Flow Method
  ,                                       !- Cooling Design Air Flow Rate {m3/s}
  ,                                       !- Cooling Minimum Air Flow per Zone Floor Area {m3/s-m2}
  ,                                       !- Cooling Minimum Air Flow {m3/s}
  ,                                       !- Cooling Minimum Air Flow Fraction
  DesignDay,                              !- Heating Design Air Flow Method
  ,                                       !- Heating Design Air Flow Rate {m3/s}
  ,                                       !- Heating Maximum Air Flow per Zone Floor Area {m3/s-m2}
  ,                                       !- Heating Maximum Air Flow {m3/s}
  ,                                       !- Heating Maximum Air Flow Fraction
  No,                                     !- Account for Dedicated Outdoor Air System
  NeutralSupplyAir,                       !- Dedicated Outdoor Air System Control Strategy
  autosize,                               !- Dedicated Outdoor Air Low Setpoint Temperature for Design {C}
  autosize,                               !- Dedicated Outdoor Air High Setpoint Temperature for Design {C}
  Sensible Load Only No Latent Load,      !- Zone Load Sizing Method
  HumidityRatioDifference,                !- Zone Latent Cooling Design Supply Air Humidity Ratio Input Method
  ,                                       !- Zone Dehumidification Design Supply Air Humidity Ratio {kgWater/kgDryAir}
  0.005,                                  !- Zone Cooling Design Supply Air Humidity Ratio Difference {kgWater/kgDryAir}
  HumidityRatioDifference,                !- Zone Latent Heating Design Supply Air Humidity Ratio Input Method
  ,                                       !- Zone Humidification Design Supply Air Humidity Ratio {kgWater/kgDryAir}
  0.005;                                  !- Zone Humidification Design Supply Air Humidity Ratio Difference {kgWater/kgDryAir}

OS:ZoneHVAC:EquipmentList,
  {f10fb2ad-7a8c-4a6e-9ce8-549b744fea77}, !- Handle
  Zone Retail Retail  - Story Ground Zone HVAC Equipment List, !- Name
  {414eab2b-136a-4287-973e-b415faf3a213}, !- Thermal Zone
  ,                                       !- Load Distribution Scheme
  {4c2f94d8-13dc-4d7d-90f5-314144403547}, !- Zone Equipment 1
  1,                                      !- Zone Equipment Cooling Sequence 1
  1,                                      !- Zone Equipment Heating or No-Load Sequence 1
  ,                                       !- Zone Equipment Sequential Cooling Fraction Schedule Name 1
  ;                                       !- Zone Equipment Sequential Heating Fraction Schedule Name 1

OS:Space,
  {ee78065a-6bca-4fcc-881a-a04dd76d1530}, !- Handle
  Retail Entry  - Story Ground,           !- Name
  {557ce639-b618-4c69-a52d-42a14250daa9}, !- Space Type Name
  ,                                       !- Default Construction Set Name
  ,                                       !- Default Schedule Set Name
  -0,                                     !- Direction of Relative North {deg}
  9.83651393968412,                       !- X Origin {m}
  -3.73302236800156,                      !- Y Origin {m}
  0,                                      !- Z Origin {m}
  {5a172e90-8642-4343-b3a9-c5f07e4918e2}, !- Building Story Name
  {ebc9c106-1ffa-4ea4-98c9-be14f283e348}; !- Thermal Zone Name

OS:Surface,
  {6f606dee-c716-4b20-982a-0abaf779c42a}, !- Handle
  Surface 7,                              !- Name
  Floor,                                  !- Surface Type
  {0e61865a-ec06-4283-8916-8fd50d130196}, !- Construction Name
  {ee78065a-6bca-4fcc-881a-a04dd76d1530}, !- Space Name
  GroundFCfactorMethod,                   !- Outside Boundary Condition
  ,                                       !- Outside Boundary Condition Object
  NoSun,                                  !- Sun Exposure
  NoWind,                                 !- Wind Exposure
  ,                                       !- View Factor to Ground
  ,                                       !- Number of Vertices
  -3.5527136788005e-15, 3.5527136788005e-15, 0, !- X,Y,Z Vertex 1 {m}
  -3.5527136788005e-15, 7.46604473600312, 0, !- X,Y,Z Vertex 2 {m}
  0.194117163136076, 7.46604473600312, 0, !- X,Y,Z Vertex 3 {m}
  0.194117163136076, 3.5527136788005e-15, 0; !- X,Y,Z Vertex 4 {m}

OS:Surface,
  {2c64670a-9540-49d3-87a0-f0bf65adad17}, !- Handle
  Surface 8,                              !- Name
  Wall,                                   !- Surface Type
  ,                                       !- Construction Name
  {ee78065a-6bca-4fcc-881a-a04dd76d1530}, !- Space Name
  Surface,                                !- Outside Boundary Condition
  {177c7533-09dc-4777-911e-297c0417b4b7}, !- Outside Boundary Condition Object
  NoSun,                                  !- Sun Exposure
  NoWind,                                 !- Wind Exposure
  ,                                       !- View Factor to Ground
  ,                                       !- Number of Vertices
  -3.5527136788005e-15, 7.46604473600312, 6.096, !- X,Y,Z Vertex 1 {m}
  -3.5527136788005e-15, 7.46604473600312, 0, !- X,Y,Z Vertex 2 {m}
  -3.5527136788005e-15, 3.5527136788005e-15, 0, !- X,Y,Z Vertex 3 {m}
  -3.5527136788005e-15, 3.5527136788005e-15, 6.096; !- X,Y,Z Vertex 4 {m}

OS:Surface,
  {a22a7fb8-e305-454e-b5bf-1f101c524d5e}, !- Handle
  Surface 9,                              !- Name
  Wall,                                   !- Surface Type
  ,                                       !- Construction Name
  {ee78065a-6bca-4fcc-881a-a04dd76d1530}, !- Space Name
  Outdoors,                               !- Outside Boundary Condition
  ,                                       !- Outside Boundary Condition Object
  SunExposed,                             !- Sun Exposure
  WindExposed,                            !- Wind Exposure
  ,                                       !- View Factor to Ground
  ,                                       !- Number of Vertices
  0.194117163136076, 7.46604473600312, 6.096, !- X,Y,Z Vertex 1 {m}
  0.194117163136076, 7.46604473600312, 0, !- X,Y,Z Vertex 2 {m}
  -3.5527136788005e-15, 7.46604473600312, 0, !- X,Y,Z Vertex 3 {m}