
OS:Version,
  {939e9ef2-edd7-475f-b220-ddcf50e4e3f2}, !- Handle
  3.4.0;                                  !- Version Identifier

OS:Facility,
  {16624667-956e-4e9d-8d41-fb089c5e56a3}; !- Handle

OS:Site,
  {48c06417-3e3e-4bdb-9108-4623733a250f}, !- Handle
  Phoenix Deer Valley_AZ_USA,             !- Name
  33.69,                                  !- Latitude {deg}
  -112.08,                                !- Longitude {deg}
  -7,                                     !- Time Zone {hr}
  450,                                    !- Elevation {m}
  City;                                   !- Terrain

OS:SimulationControl,
  {33022fb8-5c06-4c0a-baa6-b23ad0cbcbf3}, !- Handle
  ,                                       !- Do Zone Sizing Calculation
  ,                                       !- Do System Sizing Calculation
  ,                                       !- Do Plant Sizing Calculation
  No,                                     !- Run Simulation for Sizing Periods
  Yes,                                    !- Run Simulation for Weather File Run Periods
  ,                                       !- Loads Convergence Tolerance Value {W}
  ,                                       !- Temperature Convergence Tolerance Value {deltaC}
  ,                                       !- Solar Distribution
  ,                                       !- Maximum Number of Warmup Days
  ,                                       !- Minimum Number of Warmup Days
  No,                                     !- Do HVAC Sizing Simulation for Sizing Periods
  1;                                      !- Maximum Number of HVAC Sizing Simulation Passes

OS:Sizing:Parameters,
  {db05bad9-a7b5-420c-9823-ccf9a1ff9904}, !- Handle
  1.25,                                   !- Heating Sizing Factor
  1.15;                                   !- Cooling Sizing Factor

OS:Timestep,
  {05d3849e-13ec-42ed-8a22-d068dcb8719e}, !- Handle
  4;                                      !- Number of Timesteps per Hour

OS:ShadowCalculation,
  {81c610ff-6c6a-457c-b567-d599d9ec0380}, !- Handle
  PolygonClipping,                        !- Shading Calculation Method
  ,                                       !- Shading Calculation Update Frequency Method
  20,                                     !- Shading Calculation Update Frequency
  15000,                                  !- Maximum Figures in Shadow Overlap Calculations
  ,                                       !- Polygon Clipping Algorithm
  512,                                    !- Pixel Counting Resolution
  ,                                       !- Sky Diffuse Modeling Algorithm
  No,                                     !- Output External Shading Calculation Results
  No,                                     !- Disable Self-Shading Within Shading Zone Groups
  No;                                     !- Disable Self-Shading From Shading Zone Groups to Other Zones

OS:HeatBalanceAlgorithm,
  {ad9e0c8c-d06d-4d83-b1bc-64f8f9f20869}, !- Handle
  ConductionTransferFunction,             !- Algorithm
  200;                                    !- Surface Temperature Upper Limit {C}

OS:RunPeriod,
  {fc73c880-bba6-458c-b003-d2b866a4a050}, !- Handle
  Run Period 1,                           !- Name
  1,                                      !- Begin Month
  1,                                      !- Begin Day of Month
  12,                                     !- End Month
  31,                                     !- End Day of Month
  ,                                       !- Use Weather File Holidays and Special Days
  ,                                       !- Use Weather File Daylight Saving Period
  ,                                       !- Apply Weekend Holiday Rule
  ,                                       !- Use Weather File Rain Indicators
  ,                                       !- Use Weather File Snow Indicators
  ;                                       !- Number of Times Runperiod to be Repeated

OS:LifeCycleCost:Parameters,
  {c9a6458f-98f0-4694-91e0-230a760e1772}, !- Handle
  ,                                       !- Analysis Type
  ,                                       !- Discounting Convention
  ,                                       !- Inflation Approach
  ,                                       !- Real Discount Rate
  ,                                       !- Nominal Discount Rate
  ,                                       !- Inflation
  ,                                       !- Base Date Month
  ,                                       !- Base Date Year
  ,                                       !- Service Date Month
  ,                                       !- Service Date Year
  ;                                       !- Length of Study Period in Years

OS:WeatherFile,
  {0f0aa6d2-6bf2-4cc3-b3f4-328518d55177}, !- Handle
  Phoenix Deer Valley,                    !- City
  AZ,                                     !- State Province Region
  USA,                                    !- Country
  customized weather file,                !- Data Source
  722784,                                 !- WMO Number
  33.69,                                  !- Latitude {deg}
  -112.08,                                !- Longitude {deg}
  -7,                                     !- Time Zone {hr}
  450,                                    !- Elevation {m}
  /weather/G0400130.epw,                  !- Url
  226BE93E,                               !- Checksum
  ,                                       !- Start Date Actual Year
  Friday;                                 !- Start Day of Week

OS:Site:WaterMainsTemperature,
  {e10a68e2-f907-4093-8e06-de60fae5f18c}, !- Handle
  Correlation,                            !- Calculation Method
  ,                                       !- Temperature Schedule Name
  23.2,                                   !- Annual Average Outdoor Air Temperature {C}
  22.2;                                   !- Maximum Difference In Monthly Average Outdoor Air Temperatures {deltaC}

OS:SizingPeriod:DesignDay,
  {8a030289-3f34-4d57-ac76-88672f066f9a}, !- Handle
  Phoenix Deer Valley Ann Clg .4% Condns DB=>MWB 1, !- Name
  42.4,                                   !- Maximum Dry-Bulb Temperature {C}
  11.6,                                   !- Daily Dry-Bulb Temperature Range {deltaC}
  96035,                                  !- Barometric Pressure {Pa}
  4.6,                                    !- Wind Speed {m/s}
  250,                                    !- Wind Direction {deg}
  ,                                       !- Sky Clearness
  No,                                     !- Rain Indicator
  No,                                     !- Snow Indicator
  21,                                     !- Day of Month
  7,                                      !- Month
  SummerDesignDay,                        !- Day Type
  No,                                     !- Daylight Saving Time Indicator
  Wetbulb,                                !- Humidity Condition Type
  ,                                       !- Humidity Condition Day Schedule Name
  20.7,                                   !- Wetbulb or DewPoint at Maximum Dry-Bulb {C}
  ,                                       !- Humidity Ratio at Maximum Dry-Bulb {kgWater/kgDryAir}
  ,                                       !- Enthalpy at Maximum Dry-Bulb {J/kg}
  DefaultMultipliers,                     !- Dry-Bulb Temperature Range Modifier Type
  ,                                       !- Dry-Bulb Temperature Range Modifier Day Schedule Name
  ASHRAETau,                              !- Solar Model Indicator
  ,                                       !- Beam Solar Day Schedule Name
  ,                                       !- Diffuse Solar Day Schedule Name
  0.359,                                  !- ASHRAE Clear Sky Optical Depth for Beam Irradiance {dimensionless}
  2.367;                                  !- ASHRAE Clear Sky Optical Depth for Diffuse Irradiance {dimensionless}

OS:SizingPeriod:DesignDay,
  {7f206959-c0d4-49f3-9d58-10c8da5439f9}, !- Handle
  Phoenix Deer Valley Ann Clg .4% Condns WB=>MDB 1, !- Name
  34.4,                                   !- Maximum Dry-Bulb Temperature {C}
  11.6,                                   !- Daily Dry-Bulb Temperature Range {deltaC}
  96035,                                  !- Barometric Pressure {Pa}
  4.6,                                    !- Wind Speed {m/s}
  250,                                    !- Wind Direction {deg}
  ,                                       !- Sky Clearness
  No,                                     !- Rain Indicator
  No,                                     !- Snow Indicator
  21,                                     !- Day of Month
  7,                                      !- Month
  SummerDesignDay,                        !- Day Type
  No,                                     !- Daylight Saving Time Indicator
  Wetbulb,                                !- Humidity Condition Type
  ,                                       !- Humidity Condition Day Schedule Name
  23.9,                                   !- Wetbulb or DewPoint at Maximum Dry-Bulb {C}
  ,                                       !- Humidity Ratio at Maximum Dry-Bulb {kgWater/kgDryAir}
  ,                                       !- Enthalpy at Maximum Dry-Bulb {J/kg}
  DefaultMultipliers,                     !- Dry-Bulb Temperature Range Modifier Type
  ,                                       !- Dry-Bulb Temperature Range Modifier Day Schedule Name
  ASHRAETau,                              !- Solar Model Indicator
  ,                                       !- Beam Solar Day Schedule Name
  ,                                       !- Diffuse Solar Day Schedule Name
  0.359,                                  !- ASHRAE Clear Sky Optical Depth for Beam Irradiance {dimensionless}
  2.367;                                  !- ASHRAE Clear Sky Optical Depth for Diffuse Irradiance {dimensionless}

OS:SizingPeriod:DesignDay,
  {57bcdd1d-2118-407d-a45c-4363314c9f22}, !- Handle
  Phoenix Deer Valley Ann Clg 1% Condns DB=>MWB 1, !- Name
  41.3,                                   !- Maximum Dry-Bulb Temperature {C}
  11.6,                                   !- Daily Dry-Bulb Temperature Range {deltaC}
  96035,                                  !- Barometric Pressure {Pa}
  4.6,                                    !- Wind Speed {m/s}
  250,                                    !- Wind Direction {deg}
  ,                                       !- Sky Clearness
  No,                                     !- Rain Indicator
  No,                                     !- Snow Indicator
  21,                                     !- Day of Month
  7,                                      !- Month
  SummerDesignDay,                        !- Day Type
  No,                                     !- Daylight Saving Time Indicator
  Wetbulb,                                !- Humidity Condition Type
  ,                                       !- Humidity Condition Day Schedule Name
  20.4,                                   !- Wetbulb or DewPoint at Maximum Dry-Bulb {C}
  ,                                       !- Humidity Ratio at Maximum Dry-Bulb {kgWater/kgDryAir}
  ,                                       !- Enthalpy at Maximum Dry-Bulb {J/kg}
  DefaultMultipliers,                     !- Dry-Bulb Temperature Range Modifier Type
  ,                                       !- Dry-Bulb Temperature Range Modifier Day Schedule Name
  ASHRAETau,                              !- Solar Model Indicator
  ,                                       !- Beam Solar Day Schedule Name
  ,                                       !- Diffuse Solar Day Schedule Name
  0.359,                                  !- ASHRAE Clear Sky Optical Depth for Beam Irradiance {dimensionless}
  2.367;                                  !- ASHRAE Clear Sky Optical Depth for Diffuse Irradiance {dimensionless}

OS:SizingPeriod:DesignDay,
  {aa00337b-9241-44b6-bbb2-c536d67644fb}, !- Handle
  Phoenix Deer Valley Ann Clg 2% Condns DP=>MDB 1, !- Name
  29.3,                                   !- Maximum Dry-Bulb Temperature {C}
  11.6,                                   !- Daily Dry-Bulb Temperature Range {deltaC}
  96035,                                  !- Barometric Pressure {Pa}
  4.6,                                    !- Wind Speed {m/s}
  250,                                    !- Wind Direction {deg}
  ,                                       !- Sky Clearness
  No,                                     !- Rain Indicator
  No,                                     !- Snow Indicator
  21,                                     !- Day of Month
  7,                                      !- Month
  SummerDesignDay,                        !- Day Type
  No,                                     !- Daylight Saving Time Indicator
  Dewpoint,                               !- Humidity Condition Type
  ,                                       !- Humidity Condition Day Schedule Name
  18.9,                                   !- Wetbulb or DewPoint at Maximum Dry-Bulb {C}
  ,                                       !- Humidity Ratio at Maximum Dry-Bulb {kgWater/kgDryAir}
  ,                                       !- Enthalpy at Maximum Dry-Bulb {J/kg}
  DefaultMultipliers,                     !- Dry-Bulb Temperature Range Modifier Type
  ,                                       !- Dry-Bulb Temperature Range Modifier Day Schedule Name
  ASHRAETau,                              !- Solar Model Indicator
  ,                                       !- Beam Solar Day Schedule Name
  ,                                       !- Diffuse Solar Day Schedule Name
  0.359,                                  !- ASHRAE Clear Sky Optical Depth for Beam Irradiance {dimensionless}
  2.367;                                  !- ASHRAE Clear Sky Optical Depth for Diffuse Irradiance {dimensionless}

OS:SizingPeriod:DesignDay,
  {dfffb6aa-c2d6-4509-9c32-7087649239d0}, !- Handle
  Phoenix Deer Valley Ann Htg 99% Condns DB 1, !- Name
  4.1,                                    !- Maximum Dry-Bulb Temperature {C}
  0,                                      !- Daily Dry-Bulb Temperature Range {deltaC}
  96035,                                  !- Barometric Pressure {Pa}
  1.3,                                    !- Wind Speed {m/s}
  30,                                     !- Wind Direction {deg}
  0,                                      !- Sky Clearness
  No,                                     !- Rain Indicator
  No,                                     !- Snow Indicator
  21,                                     !- Day of Month
  12,                                     !- Month
  WinterDesignDay,                        !- Day Type
  No,                                     !- Daylight Saving Time Indicator
  Wetbulb,                                !- Humidity Condition Type
  ,                                       !- Humidity Condition Day Schedule Name
  4.1,                                    !- Wetbulb or DewPoint at Maximum Dry-Bulb {C}
  ,                                       !- Humidity Ratio at Maximum Dry-Bulb {kgWater/kgDryAir}
  ,                                       !- Enthalpy at Maximum Dry-Bulb {J/kg}
  DefaultMultipliers,                     !- Dry-Bulb Temperature Range Modifier Type
  ,                                       !- Dry-Bulb Temperature Range Modifier Day Schedule Name
  ASHRAEClearSky;                         !- Solar Model Indicator

OS:SizingPeriod:DesignDay,
  {68baa4b9-5c63-4ca5-87f5-3e8bd3d620f2}, !- Handle
  Phoenix Deer Valley Ann Htg 99.6% Condns DB 1, !- Name
  2.8,                                    !- Maximum Dry-Bulb Temperature {C}
  0,                                      !- Daily Dry-Bulb Temperature Range {deltaC}
  96035,                                  !- Barometric Pressure {Pa}
  1.3,                                    !- Wind Speed {m/s}
  30,                                     !- Wind Direction {deg}
  0,                                      !- Sky Clearness
  No,                                     !- Rain Indicator
  No,                                     !- Snow Indicator
  21,                                     !- Day of Month
  12,                                     !- Month
  WinterDesignDay,                        !- Day Type
  No,                                     !- Daylight Saving Time Indicator
  Wetbulb,                                !- Humidity Condition Type
  ,                                       !- Humidity Condition Day Schedule Name
  2.8,                                    !- Wetbulb or DewPoint at Maximum Dry-Bulb {C}
  ,                                       !- Humidity Ratio at Maximum Dry-Bulb {kgWater/kgDryAir}
  ,                                       !- Enthalpy at Maximum Dry-Bulb {J/kg}
  DefaultMultipliers,                     !- Dry-Bulb Temperature Range Modifier Type
  ,                                       !- Dry-Bulb Temperature Range Modifier Day Schedule Name
  ASHRAEClearSky;                         !- Solar Model Indicator

OS:SizingPeriod:DesignDay,
  {81afe745-13ea-465c-b573-db4f27b1d161}, !- Handle
  Phoenix Deer Valley Ann Htg Wind 99% Condns WS=>MCDB 1, !- Name
  13.5,                                   !- Maximum Dry-Bulb Temperature {C}
  0,                                      !- Daily Dry-Bulb Temperature Range {deltaC}
  96035,                                  !- Barometric Pressure {Pa}
  7.9,                                    !- Wind Speed {m/s}
  30,                                     !- Wind Direction {deg}
  0,                                      !- Sky Clearness
  No,                                     !- Rain Indicator
  No,                                     !- Snow Indicator
  21,                                     !- Day of Month
  12,                                     !- Month
  WinterDesignDay,                        !- Day Type
  No,                                     !- Daylight Saving Time Indicator
  Wetbulb,                                !- Humidity Condition Type
  ,                                       !- Humidity Condition Day Schedule Name
  13.5,                                   !- Wetbulb or DewPoint at Maximum Dry-Bulb {C}
  ,                                       !- Humidity Ratio at Maximum Dry-Bulb {kgWater/kgDryAir}
  ,                                       !- Enthalpy at Maximum Dry-Bulb {J/kg}
  DefaultMultipliers,                     !- Dry-Bulb Temperature Range Modifier Type
  ,                                       !- Dry-Bulb Temperature Range Modifier Day Schedule Name
  ASHRAEClearSky;                         !- Solar Model Indicator

OS:SizingPeriod:DesignDay,
  {e5d805ad-7cfd-4f61-a3d3-f9a49a0a5fef}, !- Handle
  Phoenix Deer Valley April .4% Condns DB=>MCWB 1, !- Name
  34.2,                                   !- Maximum Dry-Bulb Temperature {C}
  13.2,                                   !- Daily Dry-Bulb Temperature Range {deltaC}
  96035,                                  !- Barometric Pressure {Pa}
  4.6,                                    !- Wind Speed {m/s}
  250,                                    !- Wind Direction {deg}
  ,                                       !- Sky Clearness
  No,                                     !- Rain Indicator
  No,                                     !- Snow Indicator
  21,                                     !- Day of Month
  4,                                      !- Month
  SummerDesignDay,                        !- Day Type
  No,                                     !- Daylight Saving Time Indicator
  Wetbulb,                                !- Humidity Condition Type
  ,                                       !- Humidity Condition Day Schedule Name
  15.4,                                   !- Wetbulb or DewPoint at Maximum Dry-Bulb {C}
  ,                                       !- Humidity Ratio at Maximum Dry-Bulb {kgWater/kgDryAir}
  ,                                       !- Enthalpy at Maximum Dry-Bulb {J/kg}
  DefaultMultipliers,                     !- Dry-Bulb Temperature Range Modifier Type
  ,                                       !- Dry-Bulb Temperature Range Modifier Day Schedule Name
  ASHRAETau,                              !- Solar Model Indicator
  ,                                       !- Beam Solar Day Schedule Name
  ,                                       !- Diffuse Solar Day Schedule Name
  0.315,                                  !- ASHRAE Clear Sky Optical Depth for Beam Irradiance {dimensionless}
  2.463;                                  !- ASHRAE Clear Sky Optical Depth for Diffuse Irradiance {dimensionless}

OS:SizingPeriod:DesignDay,
  {e7d8a445-077d-4c25-a408-1b4385fd43d7}, !- Handle
  Phoenix Deer Valley April .4% Condns WB=>MCDB 1, !- Name
  29.8,                                   !- Maximum Dry-Bulb Temperature {C}
  13.2,                                   !- Daily Dry-Bulb Temperature Range {deltaC}
  96035,                                  !- Barometric Pressure {Pa}
  4.6,                                    !- Wind Speed {m/s}
  250,                                    !- Wind Direction {deg}
  ,                                       !- Sky Clearness
  No,                                     !- Rain Indicator
  No,                                     !- Snow Indicator
  21,                                     !- Day of Month
  4,                                      !- Month
  SummerDesignDay,                        !- Day Type
  No,                                     !- Daylight Saving Time Indicator
  Wetbulb,                                !- Humidity Condition Type
  ,                                       !- Humidity Condition Day Schedule Name
  19.5,                                   !- Wetbulb or DewPoint at Maximum Dry-Bulb {C}
  ,                                       !- Humidity Ratio at Maximum Dry-Bulb {kgWater/kgDryAir}
  ,                                       !- Enthalpy at Maximum Dry-Bulb {J/kg}
  DefaultMultipliers,                     !- Dry-Bulb Temperature Range Modifier Type
  ,                                       !- Dry-Bulb Temperature Range Modifier Day Schedule Name
  ASHRAETau,                              !- Solar Model Indicator
  ,                                       !- Beam Solar Day Schedule Name
  ,                                       !- Diffuse Solar Day Schedule Name
  0.315,                                  !- ASHRAE Clear Sky Optical Depth for Beam Irradiance {dimensionless}
  2.463;                                  !- ASHRAE Clear Sky Optical Depth for Diffuse Irradiance {dimensionless}

OS:SizingPeriod:DesignDay,
  {8e28ca4f-bfb8-4765-b17d-5221c8bf9aad}, !- Handle
  Phoenix Deer Valley August .4% Condns DB=>MCWB 1, !- Name
  42.7,                                   !- Maximum Dry-Bulb Temperature {C}
  11.1,                                   !- Daily Dry-Bulb Temperature Range {deltaC}
  96035,                                  !- Barometric Pressure {Pa}
  4.6,                                    !- Wind Speed {m/s}
  250,                                    !- Wind Direction {deg}
  ,                                       !- Sky Clearness
  No,                                     !- Rain Indicator
  No,                                     !- Snow Indicator
  21,                                     !- Day of Month
  8,                                      !- Month
  SummerDesignDay,                        !- Day Type
  No,                                     !- Daylight Saving Time Indicator
  Wetbulb,                                !- Humidity Condition Type
  ,                                       !- Humidity Condition Day Schedule Name
  21.7,                                   !- Wetbulb or DewPoint at Maximum Dry-Bulb {C}
  ,                                       !- Humidity Ratio at Maximum Dry-Bulb {kgWater/kgDryAir}
  ,                                       !- Enthalpy at Maximum Dry-Bulb {J/kg}
  DefaultMultipliers,                     !- Dry-Bulb Temperature Range Modifier Type
  ,                                       !- Dry-Bulb Temperature Range Modifier Day Schedule Name
  ASHRAETau,                              !- Solar Model Indicator
  ,                                       !- Beam Solar Day Schedule Name
  ,                                       !- Diffuse Solar Day Schedule Name
  0.374,                                  !- ASHRAE Clear Sky Optical Depth for Beam Irradiance {dimensionless}
  2.365;                                  !- ASHRAE Clear Sky Optical Depth for Diffuse Irradiance {dimensionless}

OS:SizingPeriod:DesignDay,
  {cb920ed7-f113-43a5-bbf6-8e8e555d62ff}, !- Handle
  Phoenix Deer Valley August .4% Condns WB=>MCDB 1, !- Name
  37.2,                                   !- Maximum Dry-Bulb Temperature {C}
  11.1,                                   !- Daily Dry-Bulb Temperature Range {deltaC}
  96035,                                  !- Barometric Pressure {Pa}
  4.6,                                    !- Wind Speed {m/s}
  250,                                    !- Wind Direction {deg}
  ,                                       !- Sky Clearness
  No,                                     !- Rain Indicator
  No,                                     !- Snow Indicator
  21,                                     !- Day of Month
  8,                                      !- Month
  SummerDesignDay,                        !- Day Type
  No,                                     !- Daylight Saving Time Indicator
  Wetbulb,                                !- Humidity Condition Type
  ,                                       !- Humidity Condition Day Schedule Name
  26.1,                                   !- Wetbulb or DewPoint at Maximum Dry-Bulb {C}
  ,                                       !- Humidity Ratio at Maximum Dry-Bulb {kgWater/kgDryAir}
  ,                                       !- Enthalpy at Maximum Dry-Bulb {J/kg}
  DefaultMultipliers,                     !- Dry-Bulb Temperature Range Modifier Type
  ,                                       !- Dry-Bulb Temperature Range Modifier Day Schedule Name
  ASHRAETau,                              !- Solar Model Indicator
  ,                                       !- Beam Solar Day Schedule Name
  ,                                       !- Diffuse Solar Day Schedule Name
  0.374,                                  !- ASHRAE Clear Sky Optical Depth for Beam Irradiance {dimensionless}
  2.365;                                  !- ASHRAE Clear Sky Optical Depth for Diffuse Irradiance {dimensionless}

OS:SizingPeriod:DesignDay,
  {d90ddebe-5654-4239-b03a-2e2a524cc2ef}, !- Handle
  Phoenix Deer Valley December .4% Condns DB=>MCWB 1, !- Name
  23.9,                                   !- Maximum Dry-Bulb Temperature {C}
  11.1,                                   !- Daily Dry-Bulb Temperature Range {deltaC}
  96035,                                  !- Barometric Pressure {Pa}
  4.6,                                    !- Wind Speed {m/s}
  250,                                    !- Wind Direction {deg}
  ,                                       !- Sky Clearness
  No,                                     !- Rain Indicator
  No,                                     !- Snow Indicator
  21,                                     !- Day of Month
  12,                                     !- Month
  SummerDesignDay,                        !- Day Type
  No,                                     !- Daylight Saving Time Indicator
  Wetbulb,                                !- Humidity Condition Type
  ,                                       !- Humidity Condition Day Schedule Name
  11.5,                                   !- Wetbulb or DewPoint at Maximum Dry-Bulb {C}
  ,                                       !- Humidity Ratio at Maximum Dry-Bulb {kgWater/kgDryAir}
  ,                                       !- Enthalpy at Maximum Dry-Bulb {J/kg}
  DefaultMultipliers,                     !- Dry-Bulb Temperature Range Modifier Type
  ,                                       !- Dry-Bulb Temperature Range Modifier Day Schedule Name
  ASHRAETau,                              !- Solar Model Indicator
  ,                                       !- Beam Solar Day Schedule Name
  ,                                       !- Diffuse Solar Day Schedule Name
  0.303,                                  !- ASHRAE Clear Sky Optical Depth for Beam Irradiance {dimensionless}
  2.621;                                  !- ASHRAE Clear Sky Optical Depth for Diffuse Irradiance {dimensionless}

OS:SizingPeriod:DesignDay,
  {a4d9a454-90d6-4d61-b61b-6009ebbe6321}, !- Handle
  Phoenix Deer Valley December .4% Condns WB=>MCDB 1, !- Name
  19.3,                                   !- Maximum Dry-Bulb Temperature {C}
  11.1,                                   !- Daily Dry-Bulb Temperature Range {deltaC}
  96035,                                  !- Barometric Pressure {Pa}
  4.6,                                    !- Wind Speed {m/s}
  250,                                    !- Wind Direction {deg}
  ,                                       !- Sky Clearness
  No,                                     !- Rain Indicator
  No,                                     !- Snow Indicator
  21,                                     !- Day of Month
  12,                                     !- Month
  SummerDesignDay,                        !- Day Type
  No,                                     !- Daylight Saving Time Indicator
  Wetbulb,                                !- Humidity Condition Type
  ,                                       !- Humidity Condition Day Schedule Name
  13.3,                                   !- Wetbulb or DewPoint at Maximum Dry-Bulb {C}
  ,                                       !- Humidity Ratio at Maximum Dry-Bulb {kgWater/kgDryAir}
  ,                                       !- Enthalpy at Maximum Dry-Bulb {J/kg}
  DefaultMultipliers,                     !- Dry-Bulb Temperature Range Modifier Type