
OS:Version,
  {b4495230-3bec-433f-8870-55e8eaab417a}, !- Handle
  3.4.0;                                  !- Version Identifier

OS:Facility,
  {b65422f8-ee03-420c-b9b5-e86e268eb2f2}; !- Handle

OS:Site,
  {5d2aea85-8dc2-4cc7-9f04-02cfc150a1a5}, !- Handle
  Chicago Ohare Intl Ap,                  !- Name
  41.98,                                  !- Latitude {deg}
  -87.92,                                 !- Longitude {deg}
  -6,                                     !- Time Zone {hr}
  201,                                    !- Elevation {m}
  City;                                   !- Terrain

OS:SimulationControl,
  {a7db1aff-dfeb-4a2b-a32b-84e8989f4284}, !- Handle
  ,                                       !- Do Zone Sizing Calculation
  ,                                       !- Do System Sizing Calculation
  ,                                       !- Do Plant Sizing Calculation
  No,                                     !- Run Simulation for Sizing Periods
  Yes,                                    !- Run Simulation for Weather File Run Periods
  ,                                       !- Loads Convergence Tolerance Value {W}
  ,                                       !- Temperature Convergence Tolerance Value {deltaC}
  ,                                       !- Solar Distribution
  ,                                       !- Maximum Number of Warmup Days
  ,                                       !- Minimum Number of Warmup Days
  No,                                     !- Do HVAC Sizing Simulation for Sizing Periods
  1;                                      !- Maximum Number of HVAC Sizing Simulation Passes

OS:Sizing:Parameters,
  {46c6f369-54fb-4ab4-a3c1-a9bb6158c66e}, !- Handle
  1.25,                                   !- Heating Sizing Factor
  1.15;                                   !- Cooling Sizing Factor

OS:Timestep,
  {2c097b88-bda1-438e-a582-f28b9fd3d461}, !- Handle
  4;                                      !- Number of Timesteps per Hour

OS:ShadowCalculation,
  {4e2a7a66-22f2-464e-a964-435cd85aa0d8}, !- Handle
  PolygonClipping,                        !- Shading Calculation Method
  ,                                       !- Shading Calculation Update Frequency Method
  20,                                     !- Shading Calculation Update Frequency
  15000,                                  !- Maximum Figures in Shadow Overlap Calculations
  ,                                       !- Polygon Clipping Algorithm
  512,                                    !- Pixel Counting Resolution
  ,                                       !- Sky Diffuse Modeling Algorithm
  No,                                     !- Output External Shading Calculation Results
  No,                                     !- Disable Self-Shading Within Shading Zone Groups
  No;                                     !- Disable Self-Shading From Shading Zone Groups to Other Zones

OS:HeatBalanceAlgorithm,
  {6d2d5cc4-e4fa-43cd-9481-c5e9ebce7d64}, !- Handle
  ConductionTransferFunction,             !- Algorithm
  200;                                    !- Surface Temperature Upper Limit {C}

OS:RunPeriod,
  {2efb7517-9f85-49fd-bcdf-077edceeaa8b}, !- Handle
  Run Period 1,                           !- Name
  1,                                      !- Begin Month
  1,                                      !- Begin Day of Month
  12,                                     !- End Month
  31,                                     !- End Day of Month
  ,                                       !- Use Weather File Holidays and Special Days
  ,                                       !- Use Weather File Daylight Saving Period
  ,                                       !- Apply Weekend Holiday Rule
  ,                                       !- Use Weather File Rain Indicators
  ,                                       !- Use Weather File Snow Indicators
  ;                                       !- Number of Times Runperiod to be Repeated

OS:LifeCycleCost:Parameters,
  {30f857a0-6602-4f00-be63-f5e7f49cb986}, !- Handle
  ,                                       !- Analysis Type
  ,                                       !- Discounting Convention
  ,                                       !- Inflation Approach
  ,                                       !- Real Discount Rate
  ,                                       !- Nominal Discount Rate
  ,                                       !- Inflation
  ,                                       !- Base Date Month
  ,                                       !- Base Date Year
  ,                                       !- Service Date Month
  ,                                       !- Service Date Year
  ;                                       !- Length of Study Period in Years

OS:Site:WaterMainsTemperature,
  {bb093ecf-cc76-4a4f-8dbd-fdc22353c487}, !- Handle
  Correlation,                            !- Calculation Method
  ,                                       !- Temperature Schedule Name
  10.825,                                 !- Annual Average Outdoor Air Temperature {C}
  27.71;                                  !- Maximum Difference In Monthly Average Outdoor Air Temperatures {deltaC}

OS:SizingPeriod:DesignDay,
  {afb7fe09-9d88-402d-bff6-96b6afa1cca8}, !- Handle
  Hartford Bradley In Ann Clg .4% Condns DB=>MWB 1, !- Name
  33,                                     !- Maximum Dry-Bulb Temperature {C}
  11.2,                                   !- Daily Dry-Bulb Temperature Range {deltaC}
  100666,                                 !- Barometric Pressure {Pa}
  4.6,                                    !- Wind Speed {m/s}
  220,                                    !- Wind Direction {deg}
  0,                                      !- Sky Clearness
  No,                                     !- Rain Indicator
  No,                                     !- Snow Indicator
  21,                                     !- Day of Month
  7,                                      !- Month
  SummerDesignDay,                        !- Day Type
  No,                                     !- Daylight Saving Time Indicator
  Wetbulb,                                !- Humidity Condition Type
  ,                                       !- Humidity Condition Day Schedule Name
  23,                                     !- Wetbulb or DewPoint at Maximum Dry-Bulb {C}
  ,                                       !- Humidity Ratio at Maximum Dry-Bulb {kgWater/kgDryAir}
  ,                                       !- Enthalpy at Maximum Dry-Bulb {J/kg}
  DefaultMultipliers,                     !- Dry-Bulb Temperature Range Modifier Type
  ,                                       !- Dry-Bulb Temperature Range Modifier Day Schedule Name
  ASHRAETau,                              !- Solar Model Indicator
  ,                                       !- Beam Solar Day Schedule Name
  ,                                       !- Diffuse Solar Day Schedule Name
  0.431,                                  !- ASHRAE Clear Sky Optical Depth for Beam Irradiance {dimensionless}
  2.175;                                  !- ASHRAE Clear Sky Optical Depth for Diffuse Irradiance {dimensionless}

OS:SizingPeriod:DesignDay,
  {bfed0139-17d4-4c08-ab30-c67f83e23c29}, !- Handle
  Hartford Bradley In Ann Clg .4% Condns WB=>MDB 1, !- Name
  30.4,                                   !- Maximum Dry-Bulb Temperature {C}
  11.2,                                   !- Daily Dry-Bulb Temperature Range {deltaC}
  100666,                                 !- Barometric Pressure {Pa}
  4.6,                                    !- Wind Speed {m/s}
  220,                                    !- Wind Direction {deg}
  0,                                      !- Sky Clearness
  No,                                     !- Rain Indicator
  No,                                     !- Snow Indicator
  21,                                     !- Day of Month
  7,                                      !- Month
  SummerDesignDay,                        !- Day Type
  No,                                     !- Daylight Saving Time Indicator
  Wetbulb,                                !- Humidity Condition Type
  ,                                       !- Humidity Condition Day Schedule Name
  24.6,                                   !- Wetbulb or DewPoint at Maximum Dry-Bulb {C}
  ,                                       !- Humidity Ratio at Maximum Dry-Bulb {kgWater/kgDryAir}
  ,                                       !- Enthalpy at Maximum Dry-Bulb {J/kg}
  DefaultMultipliers,                     !- Dry-Bulb Temperature Range Modifier Type
  ,                                       !- Dry-Bulb Temperature Range Modifier Day Schedule Name
  ASHRAETau,                              !- Solar Model Indicator
  ,                                       !- Beam Solar Day Schedule Name
  ,                                       !- Diffuse Solar Day Schedule Name
  0.431,                                  !- ASHRAE Clear Sky Optical Depth for Beam Irradiance {dimensionless}
  2.175;                                  !- ASHRAE Clear Sky Optical Depth for Diffuse Irradiance {dimensionless}

OS:SizingPeriod:DesignDay,
  {af417117-dbb3-45d2-b5bd-c3151a285198}, !- Handle
  Hartford Bradley In Ann Clg 1% Condns DB=>MWB 1, !- Name
  31.4,                                   !- Maximum Dry-Bulb Temperature {C}
  11.2,                                   !- Daily Dry-Bulb Temperature Range {deltaC}
  100666,                                 !- Barometric Pressure {Pa}
  4.6,                                    !- Wind Speed {m/s}
  220,                                    !- Wind Direction {deg}
  0,                                      !- Sky Clearness
  No,                                     !- Rain Indicator
  No,                                     !- Snow Indicator
  21,                                     !- Day of Month
  7,                                      !- Month
  SummerDesignDay,                        !- Day Type
  No,                                     !- Daylight Saving Time Indicator
  Wetbulb,                                !- Humidity Condition Type
  ,                                       !- Humidity Condition Day Schedule Name
  22.2,                                   !- Wetbulb or DewPoint at Maximum Dry-Bulb {C}
  ,                                       !- Humidity Ratio at Maximum Dry-Bulb {kgWater/kgDryAir}
  ,                                       !- Enthalpy at Maximum Dry-Bulb {J/kg}
  DefaultMultipliers,                     !- Dry-Bulb Temperature Range Modifier Type
  ,                                       !- Dry-Bulb Temperature Range Modifier Day Schedule Name
  ASHRAETau,                              !- Solar Model Indicator
  ,                                       !- Beam Solar Day Schedule Name
  ,                                       !- Diffuse Solar Day Schedule Name
  0.431,                                  !- ASHRAE Clear Sky Optical Depth for Beam Irradiance {dimensionless}
  2.175;                                  !- ASHRAE Clear Sky Optical Depth for Diffuse Irradiance {dimensionless}

OS:SizingPeriod:DesignDay,
  {52ee4c09-e07f-456f-934d-60d73326ff0d}, !- Handle
  Hartford Bradley In Ann Clg 2% Condns DP=>MDB 1, !- Name
  25.5,                                   !- Maximum Dry-Bulb Temperature {C}
  11.2,                                   !- Daily Dry-Bulb Temperature Range {deltaC}
  100666,                                 !- Barometric Pressure {Pa}
  4.6,                                    !- Wind Speed {m/s}
  220,                                    !- Wind Direction {deg}
  0,                                      !- Sky Clearness
  No,                                     !- Rain Indicator
  No,                                     !- Snow Indicator
  21,                                     !- Day of Month
  7,                                      !- Month
  SummerDesignDay,                        !- Day Type
  No,                                     !- Daylight Saving Time Indicator
  Dewpoint,                               !- Humidity Condition Type
  ,                                       !- Humidity Condition Day Schedule Name
  21.5,                                   !- Wetbulb or DewPoint at Maximum Dry-Bulb {C}
  ,                                       !- Humidity Ratio at Maximum Dry-Bulb {kgWater/kgDryAir}
  ,                                       !- Enthalpy at Maximum Dry-Bulb {J/kg}
  DefaultMultipliers,                     !- Dry-Bulb Temperature Range Modifier Type
  ,                                       !- Dry-Bulb Temperature Range Modifier Day Schedule Name
  ASHRAETau,                              !- Solar Model Indicator
  ,                                       !- Beam Solar Day Schedule Name
  ,                                       !- Diffuse Solar Day Schedule Name
  0.431,                                  !- ASHRAE Clear Sky Optical Depth for Beam Irradiance {dimensionless}
  2.175;                                  !- ASHRAE Clear Sky Optical Depth for Diffuse Irradiance {dimensionless}

OS:SizingPeriod:DesignDay,
  {deade940-e292-40e4-8375-b324d201e035}, !- Handle
  Hartford Bradley In Ann Htg 99% Condns DB 1, !- Name
  -12.7,                                  !- Maximum Dry-Bulb Temperature {C}
  0,                                      !- Daily Dry-Bulb Temperature Range {deltaC}
  100666,                                 !- Barometric Pressure {Pa}
  3.4,                                    !- Wind Speed {m/s}
  0,                                      !- Wind Direction {deg}
  0,                                      !- Sky Clearness
  No,                                     !- Rain Indicator
  No,                                     !- Snow Indicator
  21,                                     !- Day of Month
  1,                                      !- Month
  WinterDesignDay,                        !- Day Type
  No,                                     !- Daylight Saving Time Indicator
  Wetbulb,                                !- Humidity Condition Type
  ,                                       !- Humidity Condition Day Schedule Name
  -12.7,                                  !- Wetbulb or DewPoint at Maximum Dry-Bulb {C}
  ,                                       !- Humidity Ratio at Maximum Dry-Bulb {kgWater/kgDryAir}
  ,                                       !- Enthalpy at Maximum Dry-Bulb {J/kg}
  DefaultMultipliers,                     !- Dry-Bulb Temperature Range Modifier Type
  ,                                       !- Dry-Bulb Temperature Range Modifier Day Schedule Name
  ASHRAEClearSky;                         !- Solar Model Indicator

OS:SizingPeriod:DesignDay,
  {7a555de2-0203-4014-bac0-26de23cb40f6}, !- Handle
  Hartford Bradley In Ann Htg 99.6% Condns DB 1, !- Name
  -15.5,                                  !- Maximum Dry-Bulb Temperature {C}
  0,                                      !- Daily Dry-Bulb Temperature Range {deltaC}
  100666,                                 !- Barometric Pressure {Pa}
  3.4,                                    !- Wind Speed {m/s}
  0,                                      !- Wind Direction {deg}
  0,                                      !- Sky Clearness
  No,                                     !- Rain Indicator
  No,                                     !- Snow Indicator
  21,                                     !- Day of Month
  1,                                      !- Month
  WinterDesignDay,                        !- Day Type
  No,                                     !- Daylight Saving Time Indicator
  Wetbulb,                                !- Humidity Condition Type
  ,                                       !- Humidity Condition Day Schedule Name
  -15.5,                                  !- Wetbulb or DewPoint at Maximum Dry-Bulb {C}
  ,                                       !- Humidity Ratio at Maximum Dry-Bulb {kgWater/kgDryAir}
  ,                                       !- Enthalpy at Maximum Dry-Bulb {J/kg}
  DefaultMultipliers,                     !- Dry-Bulb Temperature Range Modifier Type
  ,                                       !- Dry-Bulb Temperature Range Modifier Day Schedule Name
  ASHRAEClearSky;                         !- Solar Model Indicator

OS:SizingPeriod:DesignDay,
  {7b6cc2c9-0a0e-4ec9-bc1a-95bd142df053}, !- Handle
  Hartford Bradley In Ann Htg Wind 99% Condns WS=>MCDB 1, !- Name
  -3.3,                                   !- Maximum Dry-Bulb Temperature {C}
  0,                                      !- Daily Dry-Bulb Temperature Range {deltaC}
  100666,                                 !- Barometric Pressure {Pa}
  10.8,                                   !- Wind Speed {m/s}
  0,                                      !- Wind Direction {deg}
  0,                                      !- Sky Clearness
  No,                                     !- Rain Indicator
  No,                                     !- Snow Indicator
  21,                                     !- Day of Month
  1,                                      !- Month
  WinterDesignDay,                        !- Day Type
  No,                                     !- Daylight Saving Time Indicator
  Wetbulb,                                !- Humidity Condition Type
  ,                                       !- Humidity Condition Day Schedule Name
  -3.3,                                   !- Wetbulb or DewPoint at Maximum Dry-Bulb {C}
  ,                                       !- Humidity Ratio at Maximum Dry-Bulb {kgWater/kgDryAir}
  ,                                       !- Enthalpy at Maximum Dry-Bulb {J/kg}
  DefaultMultipliers,                     !- Dry-Bulb Temperature Range Modifier Type
  ,                                       !- Dry-Bulb Temperature Range Modifier Day Schedule Name
  ASHRAEClearSky;                         !- Solar Model Indicator

OS:ClimateZones,
  {d28d976f-b61f-494d-a09f-e54027f27623}, !- Handle
  ASHRAE,                                 !- Climate Zone Institution Name 1
  ANSI/ASHRAE Standard 169,               !- Climate Zone Document Name 1
  2006,                                   !- Climate Zone Document Year 1
  ASHRAE 169-2013-5A,                     !- Climate Zone Value 1
  CEC,                                    !- Climate Zone Institution Name 2
  California Climate Zone Descriptions,   !- Climate Zone Document Name 2
  1995,                                   !- Climate Zone Document Year 2
  ;                                       !- Climate Zone Value 2

OS:Building,
  {816a6e97-47aa-4ccd-a82d-5ae670869089}, !- Handle
  ComStock DOE Ref Pre-1980|SmallOffice,  !- Name
  ,                                       !- Building Sector Type
  45,                                     !- North Axis {deg}
  ,                                       !- Nominal Floor to Floor Height {m}
  ,                                       !- Space Type Name
  {9540b5a0-18f1-46fb-a9aa-f608dbb0d749}, !- Default Construction Set Name
  {e6df65ec-4cde-4701-ba22-1688d02a48ad}, !- Default Schedule Set Name
  ,                                       !- Standards Number of Stories
  ,                                       !- Standards Number of Above Ground Stories
  ,                                       !- Standards Template
  Office;                                 !- Standards Building Type

OS:SpaceType,
  {f022df82-c2f0-4bc4-a6fb-c54ffb356f71}, !- Handle
  Office WholeBuilding - Sm Office - ComStock DOE Ref Pre-1980, !- Name
  ,                                       !- Default Construction Set Name
  {0c826195-2d28-4f41-a50d-da771afa2f66}, !- Default Schedule Set Name
  {84c2192f-c3a3-4c4f-aac6-b7412702b980}, !- Group Rendering Name
  {c77e9b1a-2e98-458d-af5e-e6222524fed0}, !- Design Specification Outdoor Air Object Name
  ,                                       !- Standards Template
  Office,                                 !- Standards Building Type
  WholeBuilding - Sm Office;              !- Standards Space Type

OS:Rendering:Color,
  {84c2192f-c3a3-4c4f-aac6-b7412702b980}, !- Handle
  Office WholeBuilding - Sm Office,       !- Name
  120,                                    !- Rendering Red Value
  230,                                    !- Rendering Green Value
  199;                                    !- Rendering Blue Value

OS:BuildingStory,
  {dbae65c9-c111-4da4-ab06-543fd162c2ab}, !- Handle
  Story Ground,                           !- Name
  0,                                      !- Nominal Z Coordinate {m}
  3.048,                                  !- Nominal Floor to Floor Height {m}
  ,                                       !- Default Construction Set Name
  ,                                       !- Default Schedule Set Name
  ;                                       !- Group Rendering Name

OS:Space,
  {58eb644d-fb0e-48d8-a67f-08ed27c8f963}, !- Handle
  Office WholeBuilding - Sm Office  - Story Ground, !- Name
  {f022df82-c2f0-4bc4-a6fb-c54ffb356f71}, !- Space Type Name
  ,                                       !- Default Construction Set Name
  ,                                       !- Default Schedule Set Name
  -0,                                     !- Direction of Relative North {deg}
  -4.81931115409661,                      !- X Origin {m}
  -4.81931115409661,                      !- Y Origin {m}
  0,                                      !- Z Origin {m}
  {dbae65c9-c111-4da4-ab06-543fd162c2ab}, !- Building Story Name
  {e66e4ca1-f9b7-4680-befc-4ba2b0334f90}; !- Thermal Zone Name

OS:Surface,
  {3f68ee6d-357b-46ec-8563-2454e60f3e3a}, !- Handle
  Surface 1,                              !- Name
  Floor,                                  !- Surface Type
  {2c27fe04-3585-4de0-bfd3-f79b5e867a5a}, !- Construction Name
  {58eb644d-fb0e-48d8-a67f-08ed27c8f963}, !- Space Name
  GroundFCfactorMethod,                   !- Outside Boundary Condition
  ,                                       !- Outside Boundary Condition Object
  NoSun,                                  !- Sun Exposure
  NoWind,                                 !- Wind Exposure
  ,                                       !- View Factor to Ground
  ,                                       !- Number of Vertices
  0, 0, 0,                                !- X,Y,Z Vertex 1 {m}
  0, 9.63862230819322, 0,                 !- X,Y,Z Vertex 2 {m}
  9.63862230819322, 9.63862230819322, 0,  !- X,Y,Z Vertex 3 {m}
  9.63862230819322, 0, 0;                 !- X,Y,Z Vertex 4 {m}

OS:Surface,
  {4017f607-d17c-423c-90a6-59125a08d089}, !- Handle
  Surface 2,                              !- Name
  Wall,                                   !- Surface Type
  ,                                       !- Construction Name
  {58eb644d-fb0e-48d8-a67f-08ed27c8f963}, !- Space Name
  Outdoors,                               !- Outside Boundary Condition
  ,                                       !- Outside Boundary Condition Object
  SunExposed,                             !- Sun Exposure
  WindExposed,                            !- Wind Exposure
  ,                                       !- View Factor to Ground
  ,                                       !- Number of Vertices
  0, 9.63862230819322, 3.048,             !- X,Y,Z Vertex 1 {m}
  0, 9.63862230819322, 0,                 !- X,Y,Z Vertex 2 {m}
  0, 0, 0,                                !- X,Y,Z Vertex 3 {m}
  0, 0, 3.048;                            !- X,Y,Z Vertex 4 {m}

OS:Surface,
  {d77b6376-8011-448d-a8c8-11ca473eee58}, !- Handle
  Surface 3,                              !- Name
  Wall,                                   !- Surface Type
  ,                                       !- Construction Name
  {58eb644d-fb0e-48d8-a67f-08ed27c8f963}, !- Space Name
  Outdoors,                               !- Outside Boundary Condition
  ,                                       !- Outside Boundary Condition Object
  SunExposed,                             !- Sun Exposure
  WindExposed,                            !- Wind Exposure
  ,                                       !- View Factor to Ground
  ,                                       !- Number of Vertices
  9.63862230819322, 9.63862230819322, 3.048, !- X,Y,Z Vertex 1 {m}
  9.63862230819322, 9.63862230819322, 0,  !- X,Y,Z Vertex 2 {m}
  0, 9.63862230819322, 0,                 !- X,Y,Z Vertex 3 {m}
  0, 9.63862230819322, 3.048;             !- X,Y,Z Vertex 4 {m}

OS:Surface,
  {2a5fa54d-0c2a-4c80-8392-2c8c7f62697d}, !- Handle
  Surface 4,                              !- Name
  Wall,                                   !- Surface Type
  ,                                       !- Construction Name
  {58eb644d-fb0e-48d8-a67f-08ed27c8f963}, !- Space Name
  Outdoors,                               !- Outside Boundary Condition
  ,                                       !- Outside Boundary Condition Object
  SunExposed,                             !- Sun Exposure
  WindExposed,                            !- Wind Exposure
  ,                                       !- View Factor to Ground
  ,                                       !- Number of Vertices
  9.63862230819322, 0, 3.048,             !- X,Y,Z Vertex 1 {m}
  9.63862230819322, 0, 0,                 !- X,Y,Z Vertex 2 {m}
  9.63862230819322, 9.63862230819322, 0,  !- X,Y,Z Vertex 3 {m}
  9.63862230819322, 9.63862230819322, 3.048; !- X,Y,Z Vertex 4 {m}

OS:Surface,
  {bebb52a3-38d3-4ae1-95ad-eac965b95175}, !- Handle
  Surface 5,                              !- Name
  Wall,                                   !- Surface Type
  ,                                       !- Construction Name
  {58eb644d-fb0e-48d8-a67f-08ed27c8f963}, !- Space Name
  Outdoors,                               !- Outside Boundary Condition
  ,                                       !- Outside Boundary Condition Object
  SunExposed,                             !- Sun Exposure
  WindExposed,                            !- Wind Exposure
  ,                                       !- View Factor to Ground
  ,                                       !- Number of Vertices
  0, 0, 3.048,                            !- X,Y,Z Vertex 1 {m}
  0, 0, 0,                                !- X,Y,Z Vertex 2 {m}
  9.63862230819322, 0, 0,                 !- X,Y,Z Vertex 3 {m}
  9.63862230819322, 0, 3.048;             !- X,Y,Z Vertex 4 {m}

OS:Surface,
  {bbc095af-411d-47bf-8071-fcb3cc380f6c}, !- Handle
  Surface 6,                              !- Name
  RoofCeiling,                            !- Surface Type
  ,                                       !- Construction Name
  {58eb644d-fb0e-48d8-a67f-08ed27c8f963}, !- Space Name
  Outdoors,                               !- Outside Boundary Condition
  ,                                       !- Outside Boundary Condition Object
  SunExposed,                             !- Sun Exposure
  WindExposed,                            !- Wind Exposure
  ,                                       !- View Factor to Ground
  ,                                       !- Number of Vertices
  9.63862230819322, 0, 3.048,             !- X,Y,Z Vertex 1 {m}
  9.63862230819322, 9.63862230819322, 3.048, !- X,Y,Z Vertex 2 {m}
  0, 9.63862230819322, 3.048,             !- X,Y,Z Vertex 3 {m}
  0, 0, 3.048;                            !- X,Y,Z Vertex 4 {m}

OS:ThermalZone,
  {e66e4ca1-f9b7-4680-befc-4ba2b0334f90}, !- Handle
  Zone Office WholeBuilding - Sm Office  - Story Ground, !- Name
  1,                                      !- Multiplier
  ,                                       !- Ceiling Height {m}
  ,                                       !- Volume {m3}
  ,                                       !- Floor Area {m2}
  ,                                       !- Zone Inside Convection Algorithm
  ,                                       !- Zone Outside Convection Algorithm
  ,                                       !- Zone Conditioning Equipment List Name
  {bab4f123-31f9-4fcb-aad3-3a001ee42f38}, !- Zone Air Inlet Port List
  {ef6e8a88-3939-4fab-88da-8ccfabc99d9f}, !- Zone Air Exhaust Port List
  {2a7a77f5-db80-47f5-bc80-a1e74ead59d2}, !- Zone Air Node Name
  {da11aee7-8897-4eb3-b67a-0fbaa21fe243}, !- Zone Return Air Port List
  ,                                       !- Primary Daylighting Control Name
  ,                                       !- Fraction of Zone Controlled by Primary Daylighting Control
  ,                                       !- Secondary Daylighting Control Name
  ,                                       !- Fraction of Zone Controlled by Secondary Daylighting Control
  ,                                       !- Illuminance Map Name
  ,                                       !- Group Rendering Name
  {7a67efb6-ecb6-45a7-b041-946fe7fba6c1}, !- Thermostat Name
  No;                                     !- Use Ideal Air Loads

OS:Node,
  {1a9fcbd8-2b30-4100-963b-e8bebc541ca6}, !- Handle
  Zone Office WholeBuilding - Sm Office  - Story Ground Zone Air Node, !- Name
  {2a7a77f5-db80-47f5-bc80-a1e74ead59d2}, !- Inlet Port
  ;                                       !- Outlet Port

OS:Connection,
  {2a7a77f5-db80-47f5-bc80-a1e74ead59d2}, !- Handle
  {e66e4ca1-f9b7-4680-befc-4ba2b0334f90}, !- Source Object
  11,                                     !- Outlet Port
  {1a9fcbd8-2b30-4100-963b-e8bebc541ca6}, !- Target Object
  2;                                      !- Inlet Port

OS:PortList,
  {bab4f123-31f9-4fcb-aad3-3a001ee42f38}, !- Handle
  {e66e4ca1-f9b7-4680-befc-4ba2b0334f90}, !- HVAC Component
  {660cc74f-aa1e-494b-9e9b-d72b2e2b8039}, !- Port 1
  {983a3c9b-9f37-4e19-bc13-ffa702795979}; !- Port 2

OS:PortList,
  {ef6e8a88-3939-4fab-88da-8ccfabc99d9f}, !- Handle
  {e66e4ca1-f9b7-4680-befc-4ba2b0334f90}, !- HVAC Component
  {fbf09079-58ac-4b90-bdc0-ff859e9c4bbf}; !- Port 1

OS:PortList,
  {da11aee7-8897-4eb3-b67a-0fbaa21fe243}, !- Handle
  {e66e4ca1-f9b7-4680-befc-4ba2b0334f90}, !- HVAC Component
  {4a0c9936-476e-4a94-9502-81982c7fdaf7}; !- Port 1

OS:Sizing:Zone,
  {8e45aafa-0088-4c78-ba27-e508966e421e}, !- Handle
  {e66e4ca1-f9b7-4680-befc-4ba2b0334f90}, !- Zone or ZoneList Name