
OS:Version,
  {aedcfbdd-63cf-4a4a-ac42-fb1c187dafec}, !- Handle
  3.3.0;                                  !- Version Identifier

OS:Facility,
  {69369528-bd83-4587-9098-82b2597dfdbe}; !- Handle

OS:Site,
  {eeee76d5-443c-472e-83e2-61d0c45a12ea}, !- Handle
  Duluth,                                 !- Name
  46.83,                                  !- Latitude {deg}
  -92.18,                                 !- Longitude {deg}
  -6,                                     !- Time Zone {hr}
  432,                                    !- Elevation {m}
  City;                                   !- Terrain

OS:SimulationControl,
  {8e314fc2-2c65-47bd-8f56-933cc1c9fe8c}, !- Handle
  ,                                       !- Do Zone Sizing Calculation
  ,                                       !- Do System Sizing Calculation
  ,                                       !- Do Plant Sizing Calculation
  No,                                     !- Run Simulation for Sizing Periods
  Yes,                                    !- Run Simulation for Weather File Run Periods
  ,                                       !- Loads Convergence Tolerance Value {W}
  ,                                       !- Temperature Convergence Tolerance Value {deltaC}
  ,                                       !- Solar Distribution
  ,                                       !- Maximum Number of Warmup Days
  ,                                       !- Minimum Number of Warmup Days
  Yes,                                    !- Do HVAC Sizing Simulation for Sizing Periods
  1;                                      !- Maximum Number of HVAC Sizing Simulation Passes

OS:Sizing:Parameters,
  {33575a16-240f-46eb-bc5f-e67f4f2fa5f7}, !- Handle
  1.25,                                   !- Heating Sizing Factor
  1.15;                                   !- Cooling Sizing Factor

OS:Timestep,
  {23780f1c-e459-427e-8f58-60b5acc94006}, !- Handle
  4;                                      !- Number of Timesteps per Hour

OS:ShadowCalculation,
  {4d1cae84-2b63-445d-b840-3243c254f4cf}, !- Handle
  PolygonClipping,                        !- Shading Calculation Method
  ,                                       !- Shading Calculation Update Frequency Method
  20,                                     !- Shading Calculation Update Frequency
  15000,                                  !- Maximum Figures in Shadow Overlap Calculations
  ,                                       !- Polygon Clipping Algorithm
  512,                                    !- Pixel Counting Resolution
  ,                                       !- Sky Diffuse Modeling Algorithm
  No,                                     !- Output External Shading Calculation Results
  No,                                     !- Disable Self-Shading Within Shading Zone Groups
  No;                                     !- Disable Self-Shading From Shading Zone Groups to Other Zones

OS:HeatBalanceAlgorithm,
  {9043a703-ca25-4a15-9907-0e3770f5a930}, !- Handle
  ConductionTransferFunction,             !- Algorithm
  200;                                    !- Surface Temperature Upper Limit {C}

OS:RunPeriod,
  {533d1e2c-8923-44a7-b828-ce2dddb02bf6}, !- Handle
  Run Period 1,                           !- Name
  1,                                      !- Begin Month
  1,                                      !- Begin Day of Month
  12,                                     !- End Month
  31,                                     !- End Day of Month
  ,                                       !- Use Weather File Holidays and Special Days
  ,                                       !- Use Weather File Daylight Saving Period
  ,                                       !- Apply Weekend Holiday Rule
  ,                                       !- Use Weather File Rain Indicators
  ,                                       !- Use Weather File Snow Indicators
  ;                                       !- Number of Times Runperiod to be Repeated

OS:LifeCycleCost:Parameters,
  {6ca3b11a-ef91-429c-af31-384445a3391d}, !- Handle
  ,                                       !- Analysis Type
  ,                                       !- Discounting Convention
  ,                                       !- Inflation Approach
  ,                                       !- Real Discount Rate
  ,                                       !- Nominal Discount Rate
  ,                                       !- Inflation
  ,                                       !- Base Date Month
  ,                                       !- Base Date Year
  ,                                       !- Service Date Month
  ,                                       !- Service Date Year
  ;                                       !- Length of Study Period in Years

OS:Site:WaterMainsTemperature,
  {84128fc8-9e58-4ff0-8cee-3dac91fbbf56}, !- Handle
  Correlation,                            !- Calculation Method
  ,                                       !- Temperature Schedule Name
  19.1133333333333,                       !- Annual Average Outdoor Air Temperature {C}
  11.61;                                  !- Maximum Difference In Monthly Average Outdoor Air Temperatures {deltaC}

OS:ClimateZones,
  {4d509f1b-f313-4efe-ad59-ceb26a4dc8c5}, !- Handle
  ASHRAE,                                 !- Climate Zone Institution Name 1
  ANSI/ASHRAE Standard 169,               !- Climate Zone Document Name 1
  2006,                                   !- Climate Zone Document Year 1
  ASHRAE 169-2013-3B,                     !- Climate Zone Value 1
  CEC,                                    !- Climate Zone Institution Name 2
  California Climate Zone Descriptions,   !- Climate Zone Document Name 2
  1995,                                   !- Climate Zone Document Year 2
  ;                                       !- Climate Zone Value 2

OS:Building,
  {b50fe849-05b2-4771-a699-75db74bba57b}, !- Handle
  ComStock 90.1-2010|MediumOffice,        !- Name
  ,                                       !- Building Sector Type
  ,                                       !- North Axis {deg}
  ,                                       !- Nominal Floor to Floor Height {m}
  ,                                       !- Space Type Name
  {1cfe051e-55b0-4973-a74c-ebe2190b284c}, !- Default Construction Set Name
  {3f99b5c1-3406-40a0-a7cd-daa0582dd422}, !- Default Schedule Set Name
  ,                                       !- Standards Number of Stories
  ,                                       !- Standards Number of Above Ground Stories
  ,                                       !- Standards Template
  Office;                                 !- Standards Building Type

OS:SpaceType,
  {0c306b29-3420-4370-acad-7c67f614fc31}, !- Handle
  Office WholeBuilding - Md Office - ComStock 90.1-2010, !- Name
  ,                                       !- Default Construction Set Name
  {be1a5027-93a3-4514-9b9c-debcbb6581bd}, !- Default Schedule Set Name
  {c5da4977-f0e1-4ceb-8052-0b54f1eaf47c}, !- Group Rendering Name
  {7efdf309-88c3-4e63-8550-c98352893fe1}, !- Design Specification Outdoor Air Object Name
  ,                                       !- Standards Template
  Office,                                 !- Standards Building Type
  WholeBuilding - Md Office;              !- Standards Space Type

OS:Rendering:Color,
  {c5da4977-f0e1-4ceb-8052-0b54f1eaf47c}, !- Handle
  Office WholeBuilding - Md Office,       !- Name
  120,                                    !- Rendering Red Value
  230,                                    !- Rendering Green Value
  199;                                    !- Rendering Blue Value

OS:BuildingStory,
  {951b5ec8-5274-4dc6-b04a-061c394d849f}, !- Handle
  Story Ground,                           !- Name
  0,                                      !- Nominal Z Coordinate {m}
  3.9624,                                 !- Nominal Floor to Floor Height {m}
  ,                                       !- Default Construction Set Name
  ,                                       !- Default Schedule Set Name
  ;                                       !- Group Rendering Name

OS:Space,
  {b8c286c9-3334-42dc-8d68-ebaebbea3cef}, !- Handle
  Office WholeBuilding - Md Office A end_a - Story Ground, !- Name
  {0c306b29-3420-4370-acad-7c67f614fc31}, !- Space Type Name
  ,                                       !- Default Construction Set Name
  ,                                       !- Default Schedule Set Name
  -0,                                     !- Direction of Relative North {deg}
  -83.4729177637873,                      !- X Origin {m}
  -20.8682294409468,                      !- Y Origin {m}
  0,                                      !- Z Origin {m}
  {951b5ec8-5274-4dc6-b04a-061c394d849f}, !- Building Story Name
  {bf2c28a3-37f4-41a8-951d-428c7853c05e}; !- Thermal Zone Name

OS:Surface,
  {1d463b5f-7f42-4912-b4a2-16e887d142ec}, !- Handle
  Surface 1,                              !- Name
  Floor,                                  !- Surface Type
  {3803af38-49b3-4347-8574-e47a519c46e6}, !- Construction Name
  {b8c286c9-3334-42dc-8d68-ebaebbea3cef}, !- Space Name
  Ground,                                 !- Outside Boundary Condition
  ,                                       !- Outside Boundary Condition Object
  NoSun,                                  !- Sun Exposure
  NoWind,                                 !- Wind Exposure
  ,                                       !- View Factor to Ground
  ,                                       !- Number of Vertices
  1.4210854715202e-14, 3.19744231092045e-14, 0, !- X,Y,Z Vertex 1 {m}
  1.4210854715202e-14, 4.57200000000003, 0, !- X,Y,Z Vertex 2 {m}
  4.572, 4.57200000000003, 0,             !- X,Y,Z Vertex 3 {m}
  4.572, 3.19744231092045e-14, 0;         !- X,Y,Z Vertex 4 {m}

OS:Surface,
  {21e5242d-a05c-4b32-8dc8-5c2381c1980e}, !- Handle
  Surface 2,                              !- Name
  Wall,                                   !- Surface Type
  {23af1828-742c-4d65-92a1-c1f649b53591}, !- Construction Name
  {b8c286c9-3334-42dc-8d68-ebaebbea3cef}, !- Space Name
  Outdoors,                               !- Outside Boundary Condition
  ,                                       !- Outside Boundary Condition Object
  SunExposed,                             !- Sun Exposure
  WindExposed,                            !- Wind Exposure
  ,                                       !- View Factor to Ground
  ,                                       !- Number of Vertices
  1.4210854715202e-14, 4.57200000000003, 3.9624, !- X,Y,Z Vertex 1 {m}
  1.4210854715202e-14, 4.57200000000003, 0, !- X,Y,Z Vertex 2 {m}
  1.4210854715202e-14, 3.19744231092045e-14, 0, !- X,Y,Z Vertex 3 {m}
  1.4210854715202e-14, 3.19744231092045e-14, 3.9624; !- X,Y,Z Vertex 4 {m}

OS:Surface,
  {8256412a-3d5f-4218-a436-8bd529aa3943}, !- Handle
  Surface 3,                              !- Name
  Wall,                                   !- Surface Type
  ,                                       !- Construction Name
  {b8c286c9-3334-42dc-8d68-ebaebbea3cef}, !- Space Name
  Surface,                                !- Outside Boundary Condition
  {81798f16-bef3-4a1e-8cb6-262220b149bd}, !- Outside Boundary Condition Object
  NoSun,                                  !- Sun Exposure
  NoWind,                                 !- Wind Exposure
  ,                                       !- View Factor to Ground
  ,                                       !- Number of Vertices
  4.572, 4.57200000000003, 3.9624,        !- X,Y,Z Vertex 1 {m}
  4.572, 4.57200000000003, 0,             !- X,Y,Z Vertex 2 {m}
  1.4210854715202e-14, 4.57200000000003, 0, !- X,Y,Z Vertex 3 {m}
  1.4210854715202e-14, 4.57200000000003, 3.9624; !- X,Y,Z Vertex 4 {m}

OS:Surface,
  {133e8871-4da8-46a2-a023-39be845d336c}, !- Handle
  Surface 4,                              !- Name
  Wall,                                   !- Surface Type
  ,                                       !- Construction Name
  {b8c286c9-3334-42dc-8d68-ebaebbea3cef}, !- Space Name
  Surface,                                !- Outside Boundary Condition
  {90748876-65fe-4a1d-9c34-5ba2bd92495e}, !- Outside Boundary Condition Object
  NoSun,                                  !- Sun Exposure
  NoWind,                                 !- Wind Exposure
  ,                                       !- View Factor to Ground
  ,                                       !- Number of Vertices
  4.572, 3.19744231092045e-14, 3.9624,    !- X,Y,Z Vertex 1 {m}
  4.572, 3.19744231092045e-14, 0,         !- X,Y,Z Vertex 2 {m}
  4.572, 4.57200000000003, 0,             !- X,Y,Z Vertex 3 {m}
  4.572, 4.57200000000003, 3.9624;        !- X,Y,Z Vertex 4 {m}

OS:Surface,
  {f2351504-416f-44b4-8b10-55f89ada69ca}, !- Handle
  Surface 5,                              !- Name
  Wall,                                   !- Surface Type
  {23af1828-742c-4d65-92a1-c1f649b53591}, !- Construction Name
  {b8c286c9-3334-42dc-8d68-ebaebbea3cef}, !- Space Name
  Outdoors,                               !- Outside Boundary Condition
  ,                                       !- Outside Boundary Condition Object
  SunExposed,                             !- Sun Exposure
  WindExposed,                            !- Wind Exposure
  ,                                       !- View Factor to Ground
  ,                                       !- Number of Vertices
  1.4210854715202e-14, 3.19744231092045e-14, 3.9624, !- X,Y,Z Vertex 1 {m}
  1.4210854715202e-14, 3.19744231092045e-14, 0, !- X,Y,Z Vertex 2 {m}
  4.572, 3.19744231092045e-14, 0,         !- X,Y,Z Vertex 3 {m}
  4.572, 3.19744231092045e-14, 3.9624;    !- X,Y,Z Vertex 4 {m}

OS:Surface,
  {4552db44-9148-49b6-a480-ba7c41d94bbd}, !- Handle
  Surface 6,                              !- Name
  RoofCeiling,                            !- Surface Type
  {e8e16197-62cb-45a5-93d2-b92b403e444c}, !- Construction Name
  {b8c286c9-3334-42dc-8d68-ebaebbea3cef}, !- Space Name
  Outdoors,                               !- Outside Boundary Condition
  ,                                       !- Outside Boundary Condition Object
  SunExposed,                             !- Sun Exposure
  WindExposed,                            !- Wind Exposure
  ,                                       !- View Factor to Ground
  ,                                       !- Number of Vertices
  4.572, 3.19744231092045e-14, 3.9624,    !- X,Y,Z Vertex 1 {m}
  4.572, 4.57200000000003, 3.9624,        !- X,Y,Z Vertex 2 {m}
  1.4210854715202e-14, 4.57200000000003, 3.9624, !- X,Y,Z Vertex 3 {m}
  1.4210854715202e-14, 3.19744231092045e-14, 3.9624; !- X,Y,Z Vertex 4 {m}

OS:ThermalZone,
  {bf2c28a3-37f4-41a8-951d-428c7853c05e}, !- Handle
  Zone Office WholeBuilding - Md Office A end_a - Story Ground, !- Name
  1,                                      !- Multiplier
  ,                                       !- Ceiling Height {m}
  ,                                       !- Volume {m3}
  ,                                       !- Floor Area {m2}
  ,                                       !- Zone Inside Convection Algorithm
  ,                                       !- Zone Outside Convection Algorithm
  ,                                       !- Zone Conditioning Equipment List Name
  {8106d697-286b-4b16-9c1b-4999db68b30e}, !- Zone Air Inlet Port List
  {c1669107-1b9c-4f6c-a768-b8040382e2ea}, !- Zone Air Exhaust Port List
  {8b25d35f-b097-4ebe-ab16-15e0111b47eb}, !- Zone Air Node Name
  {5f74f345-7689-4871-8d82-017976ce84a5}, !- Zone Return Air Port List
  ,                                       !- Primary Daylighting Control Name
  ,                                       !- Fraction of Zone Controlled by Primary Daylighting Control
  ,                                       !- Secondary Daylighting Control Name
  ,                                       !- Fraction of Zone Controlled by Secondary Daylighting Control
  ,                                       !- Illuminance Map Name
  {2a0cf371-bea8-431b-a856-c671268bcc89}, !- Group Rendering Name
  {9ed9c186-a305-4b9b-92ad-900c95fadec5}, !- Thermostat Name
  No,                                     !- Use Ideal Air Loads
  {3a0e4402-8036-4274-8fcb-d73f67ad6788}; !- Humidistat Name

OS:Node,
  {7b077b9f-4aef-4b3f-b686-f7f4fec295c1}, !- Handle
  Zone Office WholeBuilding - Md Office A end_a - Story Ground Zone Air Node, !- Name
  {8b25d35f-b097-4ebe-ab16-15e0111b47eb}, !- Inlet Port
  ;                                       !- Outlet Port

OS:Connection,
  {8b25d35f-b097-4ebe-ab16-15e0111b47eb}, !- Handle
  {bf2c28a3-37f4-41a8-951d-428c7853c05e}, !- Source Object
  11,                                     !- Outlet Port
  {7b077b9f-4aef-4b3f-b686-f7f4fec295c1}, !- Target Object
  2;                                      !- Inlet Port

OS:PortList,
  {8106d697-286b-4b16-9c1b-4999db68b30e}, !- Handle
  {bf2c28a3-37f4-41a8-951d-428c7853c05e}, !- HVAC Component
  {e067b1b4-e440-462c-9f25-6f99285b07bf}; !- Port 1

OS:PortList,
  {c1669107-1b9c-4f6c-a768-b8040382e2ea}, !- Handle
  {bf2c28a3-37f4-41a8-951d-428c7853c05e}; !- HVAC Component

OS:PortList,
  {5f74f345-7689-4871-8d82-017976ce84a5}, !- Handle
  {bf2c28a3-37f4-41a8-951d-428c7853c05e}, !- HVAC Component
  {1c126726-566e-49d7-a45d-73d7f21dc325}; !- Port 1

OS:Sizing:Zone,
  {38760b9f-4e02-4d9b-b7e7-e646bf8ee6cb}, !- Handle
  {bf2c28a3-37f4-41a8-951d-428c7853c05e}, !- Zone or ZoneList Name
  SupplyAirTemperature,                   !- Zone Cooling Design Supply Air Temperature Input Method
  12.7777777777778,                       !- Zone Cooling Design Supply Air Temperature {C}
  11.11,                                  !- Zone Cooling Design Supply Air Temperature Difference {deltaC}
  SupplyAirTemperature,                   !- Zone Heating Design Supply Air Temperature Input Method
  40.5555555555556,                       !- Zone Heating Design Supply Air Temperature {C}
  11.11,                                  !- Zone Heating Design Supply Air Temperature Difference {deltaC}
  0.0085,                                 !- Zone Cooling Design Supply Air Humidity Ratio {kg-H2O/kg-air}
  0.008,                                  !- Zone Heating Design Supply Air Humidity Ratio {kg-H2O/kg-air}
  ,                                       !- Zone Heating Sizing Factor
  ,                                       !- Zone Cooling Sizing Factor
  DesignDay,                              !- Cooling Design Air Flow Method
  ,                                       !- Cooling Design Air Flow Rate {m3/s}
  ,                                       !- Cooling Minimum Air Flow per Zone Floor Area {m3/s-m2}
  ,                                       !- Cooling Minimum Air Flow {m3/s}
  ,                                       !- Cooling Minimum Air Flow Fraction
  DesignDay,                              !- Heating Design Air Flow Method
  ,                                       !- Heating Design Air Flow Rate {m3/s}
  ,                                       !- Heating Maximum Air Flow per Zone Floor Area {m3/s-m2}
  ,                                       !- Heating Maximum Air Flow {m3/s}
  ,                                       !- Heating Maximum Air Flow Fraction
  No,                                     !- Account for Dedicated Outdoor Air System
  NeutralSupplyAir,                       !- Dedicated Outdoor Air System Control Strategy
  autosize,                               !- Dedicated Outdoor Air Low Setpoint Temperature for Design {C}
  autosize;                               !- Dedicated Outdoor Air High Setpoint Temperature for Design {C}

OS:ZoneHVAC:EquipmentList,
  {6d962500-d24f-4bda-8612-ab1233c18376}, !- Handle
  Zone Office WholeBuilding - Md Office A end_a - Story Ground Zone HVAC Equipment List, !- Name
  {bf2c28a3-37f4-41a8-951d-428c7853c05e}, !- Thermal Zone
  ,                                       !- Load Distribution Scheme
  {59432fb5-205d-4f3b-a447-42af593f3911}, !- Zone Equipment 1
  1,                                      !- Zone Equipment Cooling Sequence 1
  1,                                      !- Zone Equipment Heating or No-Load Sequence 1
  ,                                       !- Zone Equipment Sequential Cooling Fraction Schedule Name 1
  ;                                       !- Zone Equipment Sequential Heating Fraction Schedule Name 1

OS:Space,
  {c1117735-1ed2-4164-8d86-7a74f80f91c3}, !- Handle
  Office WholeBuilding - Md Office B end_a - Story Ground, !- Name
  {0c306b29-3420-4370-acad-7c67f614fc31}, !- Space Type Name
  ,                                       !- Default Construction Set Name
  ,                                       !- Default Schedule Set Name
  -0,                                     !- Direction of Relative North {deg}
  -83.4729177637873,                      !- X Origin {m}
  -16.2962294409468,                      !- Y Origin {m}
  0,                                      !- Z Origin {m}
  {951b5ec8-5274-4dc6-b04a-061c394d849f}, !- Building Story Name
  {2ac56884-c815-451e-bca0-5d5a68ebc5d5}; !- Thermal Zone Name

OS:Surface,
  {f351c6d3-efe0-4982-8b7f-b6d5b1e2ec37}, !- Handle
  Surface 7,                              !- Name
  Floor,                                  !- Surface Type
  {3803af38-49b3-4347-8574-e47a519c46e6}, !- Construction Name
  {c1117735-1ed2-4164-8d86-7a74f80f91c3}, !- Space Name
  Ground,                                 !- Outside Boundary Condition
  ,                                       !- Outside Boundary Condition Object
  NoSun,                                  !- Sun Exposure
  NoWind,                                 !- Wind Exposure
  ,                                       !- View Factor to Ground
  ,                                       !- Number of Vertices
  1.4210854715202e-14, 3.19744231092045e-14, 0, !- X,Y,Z Vertex 1 {m}
  1.4210854715202e-14, 32.5924588818936, 0, !- X,Y,Z Vertex 2 {m}
  4.572, 32.5924588818936, 0,             !- X,Y,Z Vertex 3 {m}
  4.572, 3.19744231092045e-14, 0;         !- X,Y,Z Vertex 4 {m}

OS:Surface,
  {a4cacdca-92c1-44f1-a6a5-e8acb9a3b1d3}, !- Handle
  Surface 8,                              !- Name
  Wall,                                   !- Surface Type
  {23af1828-742c-4d65-92a1-c1f649b53591}, !- Construction Name
  {c1117735-1ed2-4164-8d86-7a74f80f91c3}, !- Space Name
  Outdoors,                               !- Outside Boundary Condition
  ,                                       !- Outside Boundary Condition Object
  SunExposed,                             !- Sun Exposure
  WindExposed,                            !- Wind Exposure
  ,                                       !- View Factor to Ground
  ,                                       !- Number of Vertices
  1.4210854715202e-14, 32.5924588818936, 3.9624, !- X,Y,Z Vertex 1 {m}
  1.4210854715202e-14, 32.5924588818936, 0, !- X,Y,Z Vertex 2 {m}
  1.4210854715202e-14, 3.19744231092045e-14, 0, !- X,Y,Z Vertex 3 {m}
  1.4210854715202e-14, 3.19744231092045e-14, 3.9624; !- X,Y,Z Vertex 4 {m}

OS:Surface,
  {751f7aac-7eb3-4394-b345-a6e609819fe6}, !- Handle
  Surface 9,                              !- Name
  Wall,                                   !- Surface Type
  ,                                       !- Construction Name
  {c1117735-1ed2-4164-8d86-7a74f80f91c3}, !- Space Name
  Surface,                                !- Outside Boundary Condition
  {b74c8de1-1bc1-4ed7-81aa-59f49bc7043e}, !- Outside Boundary Condition Object
  NoSun,                                  !- Sun Exposure
  NoWind,                                 !- Wind Exposure
  ,                                       !- View Factor to Ground
  ,                                       !- Number of Vertices
  4.572, 32.5924588818936, 3.9624,        !- X,Y,Z Vertex 1 {m}
  4.572, 32.5924588818936, 0,             !- X,Y,Z Vertex 2 {m}
  1.4210854715202e-14, 32.5924588818936, 0, !- X,Y,Z Vertex 3 {m}
  1.4210854715202e-14, 32.5924588818936, 3.9624; !- X,Y,Z Vertex 4 {m}

OS:Surface,
  {f8d99667-9165-4c74-bef4-99d3bf2a059a}, !- Handle
  Surface 10,                             !- Name
  Wall,                                   !- Surface Type
  ,                                       !- Construction Name
  {c1117735-1ed2-4164-8d86-7a74f80f91c3}, !- Space Name
  Surface,                                !- Outside Boundary Condition
  {12e52fcf-37e6-4042-ac05-11ade3c73b92}, !- Outside Boundary Condition Object
  NoSun,                                  !- Sun Exposure
  NoWind,                                 !- Wind Exposure
  ,                                       !- View Factor to Ground
  ,                                       !- Number of Vertices
  4.572, 3.19744231092045e-14, 3.9624,    !- X,Y,Z Vertex 1 {m}
  4.572, 3.19744231092045e-14, 0,         !- X,Y,Z Vertex 2 {m}
  4.572, 32.5924588818936, 0,             !- X,Y,Z Vertex 3 {m}
  4.572, 32.5924588818936, 3.9624;        !- X,Y,Z Vertex 4 {m}

OS:Surface,
  {81798f16-bef3-4a1e-8cb6-262220b149bd}, !- Handle
  Surface 11,                             !- Name
  Wall,                                   !- Surface Type
  ,                                       !- Construction Name
  {c1117735-1ed2-4164-8d86-7a74f80f91c3}, !- Space Name
  Surface,                                !- Outside Boundary Condition
  {8256412a-3d5f-4218-a436-8bd529aa3943}, !- Outside Boundary Condition Object
  NoSun,                                  !- Sun Exposure
  NoWind,                                 !- Wind Exposure
  ,                                       !- View Factor to Ground
  ,                                       !- Number of Vertices
  1.4210854715202e-14, 3.19744231092045e-14, 3.9624, !- X,Y,Z Vertex 1 {m}
  1.4210854715202e-14, 3.19744231092045e-14, 0, !- X,Y,Z Vertex 2 {m}
  4.572, 3.19744231092045e-14, 0,         !- X,Y,Z Vertex 3 {m}
  4.572, 3.19744231092045e-14, 3.9624;    !- X,Y,Z Vertex 4 {m}

OS:Surface,
  {eb1cc1ac-9568-4a31-b0fd-72b0c22690cd}, !- Handle
  Surface 12,                             !- Name
  RoofCeiling,                            !- Surface Type
  {e8e16197-62cb-45a5-93d2-b92b403e444c}, !- Construction Name
  {c1117735-1ed2-4164-8d86-7a74f80f91c3}, !- Space Name
  Outdoors,                               !- Outside Boundary Condition
  ,                                       !- Outside Boundary Condition Object
  SunExposed,                             !- Sun Exposure
  WindExposed,                            !- Wind Exposure
  ,                                       !- View Factor to Ground
  ,                                       !- Number of Vertices
  4.572, 3.19744231092045e-14, 3.9624,    !- X,Y,Z Vertex 1 {m}
  4.572, 32.5924588818936, 3.9624,        !- X,Y,Z Vertex 2 {m}
  1.4210854715202e-14, 32.5924588818936, 3.9624, !- X,Y,Z Vertex 3 {m}
  1.4210854715202e-14, 3.19744231092045e-14, 3.9624; !- X,Y,Z Vertex 4 {m}

OS:ThermalZone,
  {2ac56884-c815-451e-bca0-5d5a68ebc5d5}, !- Handle
  Zone Office WholeBuilding - Md Office B end_a - Story Ground, !- Name
  1,                                      !- Multiplier
  ,                                       !- Ceiling Height {m}
  ,                                       !- Volume {m3}
  ,                                       !- Floor Area {m2}
  ,                                       !- Zone Inside Convection Algorithm
  ,                                       !- Zone Outside Convection Algorithm
  ,                                       !- Zone Conditioning Equipment List Name
  {df7f9727-dabc-4892-b082-74aa6b4dd022}, !- Zone Air Inlet Port List
  {7035d3d2-a344-473a-aeef-c75b95794c4b}, !- Zone Air Exhaust Port List
  {57d42b42-9f09-4f0c-8719-04c9b9df8a3c}, !- Zone Air Node Name
  {67964b1b-882b-4092-84c4-02965105aac1}, !- Zone Return Air Port List
  {f6655e84-f5f4-49b8-886b-0ea7765da1d4}, !- Primary Daylighting Control Name
  0.308,                                  !- Fraction of Zone Controlled by Primary Daylighting Control
  ,                                       !- Secondary Daylighting Control Name
  ,                                       !- Fraction of Zone Controlled by Secondary Daylighting Control
  ,                                       !- Illuminance Map Name
  {621a2d53-2f14-4b52-a690-184e1b872e97}, !- Group Rendering Name
  {1449fa96-a2ff-4f3d-8e1f-9ac8700fbf0c}, !- Thermostat Name
  No,                                     !- Use Ideal Air Loads
  {c99ed1ed-f94c-4767-84ab-52bcd9db63f6}; !- Humidistat Name

OS:Node,
  {2c6b724c-fa7a-492c-aa87-68408bf58dc4}, !- Handle
  Zone Office WholeBuilding - Md Office B end_a - Story Ground Zone Air Node, !- Name
  {57d42b42-9f09-4f0c-8719-04c9b9df8a3c}, !- Inlet Port
  ;                                       !- Outlet Port

OS:Connection,
  {57d42b42-9f09-4f0c-8719-04c9b9df8a3c}, !- Handle
  {2ac56884-c815-451e-bca0-5d5a68ebc5d5}, !- Source Object
  11,                                     !- Outlet Port
  {2c6b724c-fa7a-492c-aa87-68408bf58dc4}, !- Target Object
  2;                                      !- Inlet Port

OS:PortList,
  {df7f9727-dabc-4892-b082-74aa6b4dd022}, !- Handle
  {2ac56884-c815-451e-bca0-5d5a68ebc5d5}, !- HVAC Component
  {ef581bee-396a-4114-a733-9c80131a0438}; !- Port 1

OS:PortList,
  {7035d3d2-a344-473a-aeef-c75b95794c4b}, !- Handle
  {2ac56884-c815-451e-bca0-5d5a68ebc5d5}; !- HVAC Component

OS:PortList,
  {67964b1b-882b-4092-84c4-02965105aac1}, !- Handle
  {2ac56884-c815-451e-bca0-5d5a68ebc5d5}, !- HVAC Component
  {9cb84aa0-975d-4cbc-a3c1-ec5ef72e2053}; !- Port 1

OS:Sizing:Zone,
  {5ddcd408-e8c0-4d14-b7f4-85c1e35ada99}, !- Handle
  {2ac56884-c815-451e-bca0-5d5a68ebc5d5}, !- Zone or ZoneList Name
  SupplyAirTemperature,                   !- Zone Cooling Design Supply Air Temperature Input Method
  12.7777777777778,                       !- Zone Cooling Design Supply Air Temperature {C}
  11.11,                                  !- Zone Cooling Design Supply Air Temperature Difference {deltaC}
  SupplyAirTemperature,                   !- Zone Heating Design Supply Air Temperature Input Method
  40.5555555555556,                       !- Zone Heating Design Supply Air Temperature {C}