
OS:Version,
  {3079a323-e78e-4ae2-bb9c-663ad769e4f9}, !- Handle
  3.8.0;                                  !- Version Identifier

OS:Building,
  {3e1f0bdb-b6c3-4f69-864c-da368a032fbf}, !- Handle
  ComStock DOE Ref Pre-1980|MediumOffice, !- Name
  ,                                       !- Building Sector Type
  315,                                    !- North Axis {deg}
  ,                                       !- Nominal Floor to Floor Height {m}
  ,                                       !- Space Type Name
  {b47c0f55-e544-4f82-94ae-4b453a1e6306}, !- Default Construction Set Name
  {7d4cba08-84c3-4aed-9a0f-b56125f8d2a5}, !- Default Schedule Set Name
  ,                                       !- Standards Number of Stories
  ,                                       !- Standards Number of Above Ground Stories
  ,                                       !- Standards Template
  Office;                                 !- Standards Building Type

OS:Facility,
  {5a849b1c-f57a-48d0-ad80-b9f37cab8c64}; !- Handle

OS:Site,
  {379a3716-a433-4cfa-b94d-592c77c7efe4}, !- Handle
  Wilmington New Cast_DE_USA,             !- Name
  39.67,                                  !- Latitude {deg}
  -75.6,                                  !- Longitude {deg}
  -5,                                     !- Time Zone {hr}
  24,                                     !- Elevation {m}
  City;                                   !- Terrain

OS:SimulationControl,
  {49e03da6-8ed2-4860-aa92-8b9be2852150}, !- Handle
  Yes,                                    !- Do Zone Sizing Calculation
  Yes,                                    !- Do System Sizing Calculation
  Yes,                                    !- Do Plant Sizing Calculation
  No,                                     !- Run Simulation for Sizing Periods
  Yes,                                    !- Run Simulation for Weather File Run Periods
  ,                                       !- Loads Convergence Tolerance Value {W}
  ,                                       !- Temperature Convergence Tolerance Value {deltaC}
  ,                                       !- Solar Distribution
  ,                                       !- Maximum Number of Warmup Days
  ,                                       !- Minimum Number of Warmup Days
  No,                                     !- Do HVAC Sizing Simulation for Sizing Periods
  1;                                      !- Maximum Number of HVAC Sizing Simulation Passes

OS:Sizing:Parameters,
  {4f65655a-cc5e-4a73-b3ae-4a1f753ca719}, !- Handle
  1.25,                                   !- Heating Sizing Factor
  1.15;                                   !- Cooling Sizing Factor

OS:Timestep,
  {01217529-cabe-4741-879f-4eb91feb07cd}, !- Handle
  4;                                      !- Number of Timesteps per Hour

OS:ShadowCalculation,
  {fc3a383b-3c89-404a-9761-593d94339cb7}, !- Handle
  PolygonClipping,                        !- Shading Calculation Method
  ,                                       !- Shading Calculation Update Frequency Method
  20,                                     !- Shading Calculation Update Frequency
  15000,                                  !- Maximum Figures in Shadow Overlap Calculations
  ,                                       !- Polygon Clipping Algorithm
  512,                                    !- Pixel Counting Resolution
  ,                                       !- Sky Diffuse Modeling Algorithm
  No,                                     !- Output External Shading Calculation Results
  No,                                     !- Disable Self-Shading Within Shading Zone Groups
  No;                                     !- Disable Self-Shading From Shading Zone Groups to Other Zones

OS:HeatBalanceAlgorithm,
  {692ef1b8-db07-4154-995b-adba71869036}, !- Handle
  ConductionTransferFunction,             !- Algorithm
  200;                                    !- Surface Temperature Upper Limit {C}

OS:RunPeriod,
  {cb0e2c26-27ad-42a0-a4cf-7d6d0ee92c00}, !- Handle
  Run Period 1,                           !- Name
  1,                                      !- Begin Month
  1,                                      !- Begin Day of Month
  12,                                     !- End Month
  31,                                     !- End Day of Month
  ,                                       !- Use Weather File Holidays and Special Days
  ,                                       !- Use Weather File Daylight Saving Period
  ,                                       !- Apply Weekend Holiday Rule
  ,                                       !- Use Weather File Rain Indicators
  ,                                       !- Use Weather File Snow Indicators
  ;                                       !- Number of Times Runperiod to be Repeated

OS:LifeCycleCost:Parameters,
  {8e9ef09c-e2ba-4742-81d9-34072a675d0b}, !- Handle
  ,                                       !- Analysis Type
  ,                                       !- Discounting Convention
  ,                                       !- Inflation Approach
  ,                                       !- Real Discount Rate
  ,                                       !- Nominal Discount Rate
  ,                                       !- Inflation
  ,                                       !- Base Date Month
  ,                                       !- Base Date Year
  ,                                       !- Service Date Month
  ,                                       !- Service Date Year
  ;                                       !- Length of Study Period in Years

OS:WeatherFile,
  {b77eca90-5c65-4dab-bbdf-b53a14f6b54e}, !- Handle
  Wilmington New Cast,                    !- City
  DE,                                     !- State Province Region
  USA,                                    !- Country
  customized weather file,                !- Data Source
  724089,                                 !- WMO Number
  39.67,                                  !- Latitude {deg}
  -75.6,                                  !- Longitude {deg}
  -5,                                     !- Time Zone {hr}
  24,                                     !- Elevation {m}
  /weather/G1000030.epw,                  !- Url
  226BE93E,                               !- Checksum
  ,                                       !- Start Date Actual Year
  Friday;                                 !- Start Day of Week

OS:AdditionalProperties,
  {873488b5-2982-485a-9dac-f71b3c484eb6}, !- Handle
  {3e1f0bdb-b6c3-4f69-864c-da368a032fbf}, !- Object Name
  Building,                               !- Feature Name 1
  String,                                 !- Feature Data Type 1
  55341,                                  !- Feature Value 1
  cook_fuel_broiler,                      !- Feature Name 2
  String,                                 !- Feature Data Type 2
  Gas,                                    !- Feature Value 2
  cook_fuel_fryer,                        !- Feature Name 3
  String,                                 !- Feature Data Type 3
  Gas,                                    !- Feature Value 3
  cook_fuel_griddle,                      !- Feature Name 4
  String,                                 !- Feature Data Type 4
  Electric,                               !- Feature Value 4
  cook_fuel_oven,                         !- Feature Name 5
  String,                                 !- Feature Data Type 5
  Gas,                                    !- Feature Value 5
  cook_fuel_range,                        !- Feature Name 6
  String,                                 !- Feature Data Type 6
  Gas,                                    !- Feature Value 6
  cook_fuel_steamer,                      !- Feature Name 7
  String,                                 !- Feature Data Type 7
  Electric,                               !- Feature Value 7
  heating_fuel,                           !- Feature Name 8
  String,                                 !- Feature Data Type 8
  NaturalGas,                             !- Feature Value 8
  hvac_system_type,                       !- Feature Name 9
  String,                                 !- Feature Data Type 9
  PSZ-AC with gas boiler,                 !- Feature Value 9
  rotation,                               !- Feature Name 10
  String,                                 !- Feature Data Type 10
  315,                                    !- Feature Value 10
  year_of_simulation,                     !- Feature Name 11
  String,                                 !- Feature Data Type 11
  2018,                                   !- Feature Value 11
  building_type,                          !- Feature Name 12
  String,                                 !- Feature Data Type 12
  medium_office,                          !- Feature Value 12
  sampling_region,                        !- Feature Name 13
  String,                                 !- Feature Data Type 13
  46,                                     !- Feature Value 13
  size_bin,                               !- Feature Name 14
  String,                                 !- Feature Data Type 14
  0,                                      !- Feature Value 14
  building_area,                          !- Feature Name 15
  String,                                 !- Feature Data Type 15
  1001_3000,                              !- Feature Value 15
  tract,                                  !- Feature Name 16
  String,                                 !- Feature Data Type 16
  G1000030014502,                         !- Feature Value 16
  year_built,                             !- Feature Name 17
  String,                                 !- Feature Data Type 17
  1973,                                   !- Feature Value 17
  number_stories,                         !- Feature Name 18
  String,                                 !- Feature Data Type 18
  2,                                      !- Feature Value 18
  state_id,                               !- Feature Name 19
  String,                                 !- Feature Data Type 19
  G100,                                   !- Feature Value 19
  county_id,                              !- Feature Name 20
  String,                                 !- Feature Data Type 20
  G1000030,                               !- Feature Value 20
  building_subtype,                       !- Feature Name 21
  String,                                 !- Feature Data Type 21
  mediumoffice_nodatacenter,              !- Feature Value 21
  census_region,                          !- Feature Name 22
  String,                                 !- Feature Data Type 22
  South Atlantic,                         !- Feature Value 22
  climate_zone,                           !- Feature Name 23
  String,                                 !- Feature Data Type 23
  4A,                                     !- Feature Value 23
  ground_thermal_conductivity,            !- Feature Name 24
  String,                                 !- Feature Data Type 24
  1.4,                                    !- Feature Value 24
  energy_code_compliance_during_original_building_construction, !- Feature Name 25
  String,                                 !- Feature Data Type 25
  comply,                                 !- Feature Value 25
  ownership_status,                       !- Feature Name 26
  String,                                 !- Feature Data Type 26
  leased,                                 !- Feature Value 26
  party_responsible_for_operation,        !- Feature Name 27
  String,                                 !- Feature Data Type 27
  building_owner_or_tenant,               !- Feature Value 27
  purchase_input_responsibility,          !- Feature Name 28
  String,                                 !- Feature Data Type 28
  building_owner,                         !- Feature Value 28
  year_bin_of_original_building_construction, !- Feature Name 29
  String,                                 !- Feature Data Type 29
  pre_1978,                               !- Feature Value 29
  energy_code_in_force_during_original_building_construction, !- Feature Name 30
  String,                                 !- Feature Data Type 30
  ComStock DOE Ref Pre-1980,              !- Feature Value 30
  window_wall_ratio,                      !- Feature Name 31
  String,                                 !- Feature Data Type 31
  11_25pct,                               !- Feature Value 31
  energy_code_followed_during_original_building_construction, !- Feature Name 32
  String,                                 !- Feature Data Type 32
  ComStock DOE Ref Pre-1980,              !- Feature Value 32
  building_shape,                         !- Feature Name 33
  String,                                 !- Feature Data Type 33
  2,                                      !- Feature Value 33
  service_water_heating_fuel,             !- Feature Name 34
  String,                                 !- Feature Data Type 34
  NaturalGas,                             !- Feature Value 34
  wall_construction_type,                 !- Feature Name 35
  String,                                 !- Feature Data Type 35
  mass,                                   !- Feature Value 35
  weekday_start_time,                     !- Feature Name 36
  String,                                 !- Feature Data Type 36
  5.25,                                   !- Feature Value 36
  weekend_start_time,                     !- Feature Name 37
  String,                                 !- Feature Data Type 37
  9.25,                                   !- Feature Value 37
  thermal_bridging,                       !- Feature Name 38
  String,                                 !- Feature Data Type 38
  mass unmitigated,                       !- Feature Value 38
  airtightness,                           !- Feature Name 39
  String,                                 !- Feature Data Type 39
  30.0,                                   !- Feature Value 39
  aspect_ratio,                           !- Feature Name 40
  String,                                 !- Feature Data Type 40
  1,                                      !- Feature Value 40
  weekday_duration,                       !- Feature Name 41
  String,                                 !- Feature Data Type 41
  12.25,                                  !- Feature Value 41
  weekend_duration,                       !- Feature Name 42
  String,                                 !- Feature Data Type 42
  7.25,                                   !- Feature Value 42
  energy_code_compliance_hvac,            !- Feature Name 43
  String,                                 !- Feature Data Type 43
  comply,                                 !- Feature Value 43
  fault_economizer_damper_fully_closed,   !- Feature Name 44
  String,                                 !- Feature Data Type 44
  No fault,                               !- Feature Value 44
  hvac_night_variability,                 !- Feature Name 45
  String,                                 !- Feature Data Type 45
  night_fancycle_novent,                  !- Feature Value 45
  hvac_tst_clg_delta_f,                   !- Feature Name 46
  String,                                 !- Feature Data Type 46
  10,                                     !- Feature Value 46
  hvac_tst_clg_sp_f,                      !- Feature Name 47
  String,                                 !- Feature Data Type 47
  73,                                     !- Feature Value 47
  hvac_tst_htg_delta_f,                   !- Feature Name 48
  String,                                 !- Feature Data Type 48
  6,                                      !- Feature Value 48
  hvac_tst_htg_sp_f,                      !- Feature Name 49
  String,                                 !- Feature Data Type 49
  69,                                     !- Feature Value 49
  year_bin_of_last_hvac_replacement,      !- Feature Name 50
  String,                                 !- Feature Data Type 50
  2011,                                   !- Feature Value 50
  energy_code_in_force_during_last_hvac_replacement, !- Feature Name 51
  String,                                 !- Feature Data Type 51
  ComStock 90.1-2007,                     !- Feature Value 51
  energy_code_followed_during_last_hvac_replacement, !- Feature Name 52
  String,                                 !- Feature Data Type 52
  ComStock 90.1-2007,                     !- Feature Value 52
  fault_economizer_db_limit,              !- Feature Name 53
  String,                                 !- Feature Data Type 53
  No fault,                               !- Feature Value 53
  cook_dining_type,                       !- Feature Name 54
  String,                                 !- Feature Data Type 54
  None,                                   !- Feature Value 54
  cook_fryers_counts,                     !- Feature Name 55
  String,                                 !- Feature Data Type 55
  0.0,                                    !- Feature Value 55
  cook_griddles_counts,                   !- Feature Name 56
  String,                                 !- Feature Data Type 56
  0.0,                                    !- Feature Value 56
  cook_ovens_counts,                      !- Feature Name 57
  String,                                 !- Feature Data Type 57
  0.0,                                    !- Feature Value 57
  cook_ranges_counts,                     !- Feature Name 58
  String,                                 !- Feature Data Type 58
  0.0,                                    !- Feature Value 58
  cook_steamers_counts,                   !- Feature Name 59
  String,                                 !- Feature Data Type 59
  0.0,                                    !- Feature Value 59
  cook_broiler_counts,                    !- Feature Name 60
  String,                                 !- Feature Data Type 60
  0.0,                                    !- Feature Value 60
  energy_code_compliance_service_water_heating, !- Feature Name 61
  String,                                 !- Feature Data Type 61
  comply,                                 !- Feature Value 61
  energy_code_compliance_interior_equipment, !- Feature Name 62
  String,                                 !- Feature Data Type 62
  comply,                                 !- Feature Value 62
  plugload_sch_base_peak_ratio_type,      !- Feature Name 63
  String,                                 !- Feature Data Type 63
  office_plugload_bpr_no_strict_schedule, !- Feature Value 63
  plugload_sch_weekday_base_peak_ratio,   !- Feature Name 64
  String,                                 !- Feature Data Type 64
  0.75,                                   !- Feature Value 64
  plugload_sch_weekend_base_peak_ratio,   !- Feature Name 65
  String,                                 !- Feature Data Type 65
  0.7,                                    !- Feature Value 65
  year_bin_of_last_interior_equipment_replacement, !- Feature Name 66
  String,                                 !- Feature Data Type 66
  2005,                                   !- Feature Value 66
  year_bin_of_last_service_water_heating_replacement, !- Feature Name 67
  String,                                 !- Feature Data Type 67
  2004,                                   !- Feature Value 67
  energy_code_in_force_during_last_interior_equipment_replacement, !- Feature Name 68
  String,                                 !- Feature Data Type 68
  ComStock DOE Ref 1980-2004,             !- Feature Value 68
  energy_code_in_force_during_last_service_water_heating_replacement, !- Feature Name 69
  String,                                 !- Feature Data Type 69
  ComStock DOE Ref 1980-2004,             !- Feature Value 69
  energy_code_followed_during_last_interior_equipment_replacement, !- Feature Name 70
  String,                                 !- Feature Data Type 70
  ComStock DOE Ref 1980-2004,             !- Feature Value 70
  energy_code_followed_during_last_service_water_heating_replacement, !- Feature Name 71
  String,                                 !- Feature Data Type 71
  ComStock DOE Ref 1980-2004,             !- Feature Value 71
  building_size_lighting_tech,            !- Feature Name 72
  String,                                 !- Feature Data Type 72
  small,                                  !- Feature Value 72
  energy_code_compliance_exterior_lighting, !- Feature Name 73
  String,                                 !- Feature Data Type 73
  comply,                                 !- Feature Value 73
  energy_code_compliance_interior_lighting, !- Feature Name 74
  String,                                 !- Feature Data Type 74
  lead,                                   !- Feature Value 74
  ltg_sch_base_peak_ratio_type,           !- Feature Name 75
  String,                                 !- Feature Data Type 75
  office_ltg_bpr_no_strict_schedule_towards_off, !- Feature Value 75
  ltg_sch_weekday_base_peak_ratio,        !- Feature Name 76
  String,                                 !- Feature Data Type 76
  0.05,                                   !- Feature Value 76
  ltg_sch_weekend_base_peak_ratio,        !- Feature Name 77
  String,                                 !- Feature Data Type 77
  0.95,                                   !- Feature Value 77
  year_bin_of_last_exterior_lighting_replacement, !- Feature Name 78
  String,                                 !- Feature Data Type 78
  2014,                                   !- Feature Value 78
  year_bin_of_last_interior_lighting_replacement, !- Feature Name 79
  String,                                 !- Feature Data Type 79
  2018,                                   !- Feature Value 79
  energy_code_in_force_during_last_exterior_lighting_replacement, !- Feature Name 80
  String,                                 !- Feature Data Type 80
  ComStock 90.1-2007,                     !- Feature Value 80
  energy_code_in_force_during_last_interior_lighting_replacement, !- Feature Name 81
  String,                                 !- Feature Data Type 81
  ComStock 90.1-2010,                     !- Feature Value 81
  lighting_generation,                    !- Feature Name 82
  String,                                 !- Feature Data Type 82
  gen5_led,                               !- Feature Value 82
  energy_code_followed_during_last_exterior_lighting_replacement, !- Feature Name 83
  String,                                 !- Feature Data Type 83
  ComStock 90.1-2007,                     !- Feature Value 83
  energy_code_followed_during_last_interior_lighting_replacement, !- Feature Name 84
  String,                                 !- Feature Data Type 84
  ComStock 90.1-2019,                     !- Feature Value 84
  energy_code_compliance_roof,            !- Feature Name 85
  String,                                 !- Feature Data Type 85
  comply,                                 !- Feature Value 85
  energy_code_compliance_walls,           !- Feature Name 86
  String,                                 !- Feature Data Type 86
  comply,                                 !- Feature Value 86
  energy_code_compliance_windows,         !- Feature Name 87
  String,                                 !- Feature Data Type 87
  comply,                                 !- Feature Value 87
  year_bin_of_last_roof_replacement,      !- Feature Name 88
  String,                                 !- Feature Data Type 88
  pre_1978,                               !- Feature Value 88
  year_bin_of_last_walls_replacement,     !- Feature Name 89
  String,                                 !- Feature Data Type 89
  pre_1978,                               !- Feature Value 89
  year_bin_of_last_windows_replacement,   !- Feature Name 90
  String,                                 !- Feature Data Type 90
  1995,                                   !- Feature Value 90
  energy_code_in_force_during_last_roof_replacement, !- Feature Name 91
  String,                                 !- Feature Data Type 91
  ComStock DOE Ref Pre-1980,              !- Feature Value 91
  energy_code_in_force_during_last_walls_replacement, !- Feature Name 92
  String,                                 !- Feature Data Type 92
  ComStock DOE Ref Pre-1980,              !- Feature Value 92
  energy_code_in_force_during_last_windows_replacement, !- Feature Name 93
  String,                                 !- Feature Data Type 93
  ComStock DOE Ref 1980-2004,             !- Feature Value 93
  energy_code_followed_during_last_roof_replacement, !- Feature Name 94
  String,                                 !- Feature Data Type 94
  ComStock DOE Ref Pre-1980,              !- Feature Value 94
  energy_code_followed_during_last_walls_replacement, !- Feature Name 95
  String,                                 !- Feature Data Type 95
  ComStock DOE Ref Pre-1980,              !- Feature Value 95
  energy_code_followed_during_last_windows_replacement, !- Feature Name 96
  String,                                 !- Feature Data Type 96
  ComStock DOE Ref 1980-2004,             !- Feature Value 96
  baseline_window_type,                   !- Feature Name 97
  String,                                 !- Feature Data Type 97
  Double - No LowE - Tinted/Reflective - Aluminum, !- Feature Value 97
  baseline_hvac_sizing,                   !- Feature Name 98
  String,                                 !- Feature Data Type 98
  hardsize,                               !- Feature Value 98
  nhgis_tract_gisjoin,                    !- Feature Name 99
  String,                                 !- Feature Data Type 99
  G1000030014502,                         !- Feature Value 99
  nhgis_county_gisjoin,                   !- Feature Name 100
  String,                                 !- Feature Data Type 100
  G1000030,                               !- Feature Value 100
  nhgis_puma_gisjoin,                     !- Feature Name 101
  String,                                 !- Feature Data Type 101
  G10000103,                              !- Feature Value 101
  state_name,                             !- Feature Name 102
  String,                                 !- Feature Data Type 102
  Delaware,                               !- Feature Value 102
  state_abbreviation,                     !- Feature Name 103
  String,                                 !- Feature Data Type 103
  DE,                                     !- Feature Value 103
  census_division_name,                   !- Feature Name 104
  String,                                 !- Feature Data Type 104
  South Atlantic,                         !- Feature Value 104
  census_region_name,                     !- Feature Name 105
  String,                                 !- Feature Data Type 105
  South,                                  !- Feature Value 105
  census_division_name_recs,              !- Feature Name 106
  String,                                 !- Feature Data Type 106
  South Atlantic,                         !- Feature Value 106
  american_housing_survey_region,         !- Feature Name 107
  String,                                 !- Feature Data Type 107
  CBSA Philadelphia-Camden-Wilmington&#44 PA-NJ-DE-MD, !- Feature Value 107
  weather_file_2018,                      !- Feature Name 108
  String,                                 !- Feature Data Type 108
  USA_DE_Wilmington.New.Cast.724089_2018.epw, !- Feature Value 108
  weather_file_TMY3,                      !- Feature Name 109
  String,                                 !- Feature Data Type 109
  Wilmington_New_Castle_Cnty_Ap,          !- Feature Value 109
  climate_zone_building_america,          !- Feature Name 110
  String,                                 !- Feature Data Type 110
  Mixed-Humid,                            !- Feature Value 110
  climate_zone_ashrae_2006,               !- Feature Name 111
  String,                                 !- Feature Data Type 111
  4A,                                     !- Feature Value 111
  iso_region,                             !- Feature Name 112
  String,                                 !- Feature Data Type 112
  PJM,                                    !- Feature Value 112
  reeds_balancing_area,                   !- Feature Name 113
  String,                                 !- Feature Data Type 113
  125,                                    !- Feature Value 113
  resstock_county_id,                     !- Feature Name 114
  String,                                 !- Feature Data Type 114
  DE&#44 New Castle County,               !- Feature Value 114
  resstock_puma_id,                       !- Feature Name 115
  String,                                 !- Feature Data Type 115
  DE&#44 00103,                           !- Feature Value 115
  resstock_custom_region,                 !- Feature Name 116
  String,                                 !- Feature Data Type 116
  CR08,                                   !- Feature Value 116
  cambium_grid_region,                    !- Feature Name 117
  String,                                 !- Feature Data Type 117
  RFCEc,                                  !- Feature Value 117
  cluster_id,                             !- Feature Name 118
  String,                                 !- Feature Data Type 118
  39,                                     !- Feature Value 118
  cluster_name,                           !- Feature Name 119
  String,                                 !- Feature Data Type 119
  the Washington DC to Philadelphia Area, !- Feature Value 119
  grid_region,                            !- Feature Name 120
  String,                                 !- Feature Data Type 120
  RFCEc,                                  !- Feature Value 120
  Soil Conductivity,                      !- Feature Name 121
  Double,                                 !- Feature Data Type 121
  1.3999999999999999,                     !- Feature Value 121
  Undisturbed Ground Temperature,         !- Feature Name 122