
OS:Version,
  {a6868c54-9a1a-46d1-a377-1a83588a69aa}, !- Handle
  3.10.0;                                 !- Version Identifier

OS:Building,
  {eacc6762-e174-45b8-ac5f-0e696facf0b4}, !- Handle
  ComStock DOE Ref Pre-1980|SecondarySchool, !- Name
  ,                                       !- Building Sector Type
  315,                                    !- North Axis {deg}
  ,                                       !- Nominal Floor to Floor Height {m}
  ,                                       !- Space Type Name
  {04138855-ddda-4aff-a761-2d3d356429af}, !- Default Construction Set Name
  {1dd18af3-425c-4d03-859f-301684e5039a}, !- Default Schedule Set Name
  ,                                       !- Standards Number of Stories
  ,                                       !- Standards Number of Above Ground Stories
  ,                                       !- Standards Template
  SecondarySchool;                        !- Standards Building Type

OS:Facility,
  {e29e7d84-cb73-46d1-b122-bf07a28f1f03}; !- Handle

OS:Site,
  {6b14115b-1e93-4ae1-b6cc-780433d94b4e}, !- Handle
  Mankata Rgnl Arpt_MN_USA,               !- Name
  44.22,                                  !- Latitude {deg}
  -93.92,                                 !- Longitude {deg}
  -6,                                     !- Time Zone {hr}
  311,                                    !- Elevation {m}
  City;                                   !- Terrain

OS:SimulationControl,
  {4fb2f2a2-b236-4d7b-88dc-4a0320a2a130}, !- Handle
  Yes,                                    !- Do Zone Sizing Calculation
  Yes,                                    !- Do System Sizing Calculation
  Yes,                                    !- Do Plant Sizing Calculation
  No,                                     !- Run Simulation for Sizing Periods
  Yes,                                    !- Run Simulation for Weather File Run Periods
  ,                                       !- Loads Convergence Tolerance Value {W}
  ,                                       !- Temperature Convergence Tolerance Value {deltaC}
  ,                                       !- Solar Distribution
  ,                                       !- Maximum Number of Warmup Days
  ,                                       !- Minimum Number of Warmup Days
  No,                                     !- Do HVAC Sizing Simulation for Sizing Periods
  1;                                      !- Maximum Number of HVAC Sizing Simulation Passes

OS:Sizing:Parameters,
  {32f125e3-657a-4329-bf20-a109010bd8cb}, !- Handle
  1.25,                                   !- Heating Sizing Factor
  1.15;                                   !- Cooling Sizing Factor

OS:Timestep,
  {30ea3db7-15c5-417e-8b51-48b3ebfec248}, !- Handle
  4;                                      !- Number of Timesteps per Hour

OS:ShadowCalculation,
  {4735e267-d3c9-4800-9476-2630d5772c7c}, !- Handle
  PolygonClipping,                        !- Shading Calculation Method
  ,                                       !- Shading Calculation Update Frequency Method
  20,                                     !- Shading Calculation Update Frequency
  15000,                                  !- Maximum Figures in Shadow Overlap Calculations
  ,                                       !- Polygon Clipping Algorithm
  512,                                    !- Pixel Counting Resolution
  ,                                       !- Sky Diffuse Modeling Algorithm
  No,                                     !- Output External Shading Calculation Results
  No,                                     !- Disable Self-Shading Within Shading Zone Groups
  No;                                     !- Disable Self-Shading From Shading Zone Groups to Other Zones

OS:HeatBalanceAlgorithm,
  {b388d763-e047-48fb-8960-350832455fee}, !- Handle
  ConductionTransferFunction,             !- Algorithm
  200;                                    !- Surface Temperature Upper Limit {C}

OS:RunPeriod,
  {992b54bf-ebdb-4553-b797-8e59f082c831}, !- Handle
  Run Period 1,                           !- Name
  1,                                      !- Begin Month
  1,                                      !- Begin Day of Month
  12,                                     !- End Month
  31,                                     !- End Day of Month
  ,                                       !- Use Weather File Holidays and Special Days
  ,                                       !- Use Weather File Daylight Saving Period
  ,                                       !- Apply Weekend Holiday Rule
  ,                                       !- Use Weather File Rain Indicators
  ,                                       !- Use Weather File Snow Indicators
  ;                                       !- Number of Times Runperiod to be Repeated

OS:LifeCycleCost:Parameters,
  {2bbeba24-8777-4de3-a25f-1bda8181f5bd}, !- Handle
  ,                                       !- Analysis Type
  ,                                       !- Discounting Convention
  ,                                       !- Inflation Approach
  ,                                       !- Real Discount Rate
  ,                                       !- Nominal Discount Rate
  ,                                       !- Inflation
  ,                                       !- Base Date Month
  ,                                       !- Base Date Year
  ,                                       !- Service Date Month
  ,                                       !- Service Date Year
  ;                                       !- Length of Study Period in Years

OS:WeatherFile,
  {02acce1e-9e42-44fe-96ef-ab1e9f8ab91f}, !- Handle
  Mankata Rgnl Arpt,                      !- City
  MN,                                     !- State Province Region
  USA,                                    !- Country
  customized weather file,                !- Data Source
  726585,                                 !- WMO Number
  44.22,                                  !- Latitude {deg}
  -93.92,                                 !- Longitude {deg}
  -6,                                     !- Time Zone {hr}
  311,                                    !- Elevation {m}
  /weather/G2700790.epw,                  !- Url
  226BE93E,                               !- Checksum
  ,                                       !- Start Date Actual Year
  Friday;                                 !- Start Day of Week

OS:AdditionalProperties,
  {3e46481e-089e-4011-a555-f588eae5cafe}, !- Handle
  {eacc6762-e174-45b8-ac5f-0e696facf0b4}, !- Object Name
  Building,                               !- Feature Name 1
  String,                                 !- Feature Data Type 1
  5286,                                   !- Feature Value 1
  cook_fuel_broiler,                      !- Feature Name 2
  String,                                 !- Feature Data Type 2
  Electric,                               !- Feature Value 2
  cook_fuel_fryer,                        !- Feature Name 3
  String,                                 !- Feature Data Type 3
  Gas,                                    !- Feature Value 3
  cook_fuel_griddle,                      !- Feature Name 4
  String,                                 !- Feature Data Type 4
  Gas,                                    !- Feature Value 4
  cook_fuel_oven,                         !- Feature Name 5
  String,                                 !- Feature Data Type 5
  Electric,                               !- Feature Value 5
  cook_fuel_range,                        !- Feature Name 6
  String,                                 !- Feature Data Type 6
  Gas,                                    !- Feature Value 6
  cook_fuel_steamer,                      !- Feature Name 7
  String,                                 !- Feature Data Type 7
  Electric,                               !- Feature Value 7
  heating_fuel,                           !- Feature Name 8
  String,                                 !- Feature Data Type 8
  Electricity,                            !- Feature Value 8
  hvac_system_type,                       !- Feature Name 9
  String,                                 !- Feature Data Type 9
  DOAS with water source heat pumps with ground source heat pump, !- Feature Value 9
  rotation,                               !- Feature Name 10
  String,                                 !- Feature Data Type 10
  315,                                    !- Feature Value 10
  year_of_simulation,                     !- Feature Name 11
  String,                                 !- Feature Data Type 11
  2018,                                   !- Feature Value 11
  building_type,                          !- Feature Name 12
  String,                                 !- Feature Data Type 12
  secondary_school,                       !- Feature Value 12
  sampling_region,                        !- Feature Name 13
  String,                                 !- Feature Data Type 13
  20,                                     !- Feature Value 13
  size_bin,                               !- Feature Name 14
  String,                                 !- Feature Data Type 14
  0,                                      !- Feature Value 14
  building_area,                          !- Feature Name 15
  String,                                 !- Feature Data Type 15
  1001_3000,                              !- Feature Value 15
  tract,                                  !- Feature Name 16
  String,                                 !- Feature Data Type 16
  G2700790950200,                         !- Feature Value 16
  year_built,                             !- Feature Name 17
  String,                                 !- Feature Data Type 17
  1950,                                   !- Feature Value 17
  number_stories,                         !- Feature Name 18
  String,                                 !- Feature Data Type 18
  1,                                      !- Feature Value 18
  state_id,                               !- Feature Name 19
  String,                                 !- Feature Data Type 19
  G270,                                   !- Feature Value 19
  county_id,                              !- Feature Name 20
  String,                                 !- Feature Data Type 20
  G2700790,                               !- Feature Value 20
  building_subtype,                       !- Feature Name 21
  String,                                 !- Feature Data Type 21
  NA,                                     !- Feature Value 21
  census_region,                          !- Feature Name 22
  String,                                 !- Feature Data Type 22
  West North Central,                     !- Feature Value 22
  climate_zone,                           !- Feature Name 23
  String,                                 !- Feature Data Type 23
  6A,                                     !- Feature Value 23
  ground_thermal_conductivity,            !- Feature Name 24
  String,                                 !- Feature Data Type 24
  1.4,                                    !- Feature Value 24
  energy_code_compliance_during_original_building_construction, !- Feature Name 25
  String,                                 !- Feature Data Type 25
  comply,                                 !- Feature Value 25
  ownership_status,                       !- Feature Name 26
  String,                                 !- Feature Data Type 26
  owner_occupied,                         !- Feature Value 26
  party_responsible_for_operation,        !- Feature Name 27
  String,                                 !- Feature Data Type 27
  building_owner,                         !- Feature Value 27
  purchase_input_responsibility,          !- Feature Name 28
  String,                                 !- Feature Data Type 28
  building_owner,                         !- Feature Value 28
  year_bin_of_original_building_construction, !- Feature Name 29
  String,                                 !- Feature Data Type 29
  pre_1978,                               !- Feature Value 29
  energy_code_in_force_during_original_building_construction, !- Feature Name 30
  String,                                 !- Feature Data Type 30
  ComStock DOE Ref Pre-1980,              !- Feature Value 30
  window_wall_ratio,                      !- Feature Name 31
  String,                                 !- Feature Data Type 31
  26_50pct,                               !- Feature Value 31
  energy_code_followed_during_original_building_construction, !- Feature Name 32
  String,                                 !- Feature Data Type 32
  ComStock DOE Ref Pre-1980,              !- Feature Value 32
  building_shape,                         !- Feature Name 33
  String,                                 !- Feature Data Type 33
  3,                                      !- Feature Value 33
  service_water_heating_fuel,             !- Feature Name 34
  String,                                 !- Feature Data Type 34
  NaturalGas,                             !- Feature Value 34
  wall_construction_type,                 !- Feature Name 35
  String,                                 !- Feature Data Type 35
  steel_framed,                           !- Feature Value 35
  weekday_start_time,                     !- Feature Name 36
  String,                                 !- Feature Data Type 36
  6.5,                                    !- Feature Value 36
  weekend_start_time,                     !- Feature Name 37
  String,                                 !- Feature Data Type 37
  10.0,                                   !- Feature Value 37
  thermal_bridging,                       !- Feature Name 38
  String,                                 !- Feature Data Type 38
  steel-framed and metal unmitigated,     !- Feature Value 38
  airtightness,                           !- Feature Name 39
  String,                                 !- Feature Data Type 39
  15.0,                                   !- Feature Value 39
  aspect_ratio,                           !- Feature Name 40
  String,                                 !- Feature Data Type 40
  5,                                      !- Feature Value 40
  weekday_duration,                       !- Feature Name 41
  String,                                 !- Feature Data Type 41
  10.75,                                  !- Feature Value 41
  weekend_duration,                       !- Feature Name 42
  String,                                 !- Feature Data Type 42
  10.0,                                   !- Feature Value 42
  energy_code_compliance_hvac,            !- Feature Name 43
  String,                                 !- Feature Data Type 43
  comply,                                 !- Feature Value 43
  fault_economizer_damper_fully_closed,   !- Feature Name 44
  String,                                 !- Feature Data Type 44
  No fault,                               !- Feature Value 44
  hvac_night_variability,                 !- Feature Name 45
  String,                                 !- Feature Data Type 45
  default_nochange,                       !- Feature Value 45
  hvac_tst_clg_delta_f,                   !- Feature Name 46
  String,                                 !- Feature Data Type 46
  6,                                      !- Feature Value 46
  hvac_tst_clg_sp_f,                      !- Feature Name 47
  String,                                 !- Feature Data Type 47
  70,                                     !- Feature Value 47
  hvac_tst_htg_delta_f,                   !- Feature Name 48
  String,                                 !- Feature Data Type 48
  4,                                      !- Feature Value 48
  hvac_tst_htg_sp_f,                      !- Feature Name 49
  String,                                 !- Feature Data Type 49
  67,                                     !- Feature Value 49
  year_bin_of_last_hvac_replacement,      !- Feature Name 50
  String,                                 !- Feature Data Type 50
  2008,                                   !- Feature Value 50
  year_bin_of_last_refrigeration_replacement, !- Feature Name 51
  String,                                 !- Feature Data Type 51
  2018,                                   !- Feature Value 51
  include_refrigeration_technology_level, !- Feature Name 52
  String,                                 !- Feature Data Type 52
  yes,                                    !- Feature Value 52
  refrigeration_technology_level,         !- Feature Name 53
  String,                                 !- Feature Data Type 53
  old,                                    !- Feature Value 53
  energy_code_in_force_during_last_hvac_replacement, !- Feature Name 54
  String,                                 !- Feature Data Type 54
  ComStock DOE Ref 1980-2004,             !- Feature Value 54
  energy_code_followed_during_last_hvac_replacement, !- Feature Name 55
  String,                                 !- Feature Data Type 55
  ComStock DOE Ref 1980-2004,             !- Feature Value 55
  fault_economizer_db_limit,              !- Feature Name 56
  String,                                 !- Feature Data Type 56
  Fault,                                  !- Feature Value 56
  cook_dining_type,                       !- Feature Name 57
  String,                                 !- Feature Data Type 57
  High School,                            !- Feature Value 57
  cook_fryers_counts,                     !- Feature Name 58
  String,                                 !- Feature Data Type 58
  0.0,                                    !- Feature Value 58
  cook_griddles_counts,                   !- Feature Name 59
  String,                                 !- Feature Data Type 59
  0.0,                                    !- Feature Value 59
  cook_ovens_counts,                      !- Feature Name 60
  String,                                 !- Feature Data Type 60
  0.0,                                    !- Feature Value 60
  cook_ranges_counts,                     !- Feature Name 61
  String,                                 !- Feature Data Type 61
  0.0,                                    !- Feature Value 61
  cook_steamers_counts,                   !- Feature Name 62
  String,                                 !- Feature Data Type 62
  0.0,                                    !- Feature Value 62
  cook_broiler_counts,                    !- Feature Name 63
  String,                                 !- Feature Data Type 63
  0.0,                                    !- Feature Value 63
  energy_code_compliance_service_water_heating, !- Feature Name 64
  String,                                 !- Feature Data Type 64
  comply,                                 !- Feature Value 64
  energy_code_compliance_interior_equipment, !- Feature Name 65
  String,                                 !- Feature Data Type 65
  comply,                                 !- Feature Value 65
  plugload_sch_base_peak_ratio_type,      !- Feature Name 66
  String,                                 !- Feature Data Type 66
  education_school_plugload_bpr_some_off_some_on, !- Feature Value 66
  plugload_sch_weekday_base_peak_ratio,   !- Feature Name 67
  String,                                 !- Feature Data Type 67
  0.9,                                    !- Feature Value 67
  plugload_sch_weekend_base_peak_ratio,   !- Feature Name 68
  String,                                 !- Feature Data Type 68
  0.4,                                    !- Feature Value 68
  year_bin_of_last_interior_equipment_replacement, !- Feature Name 69
  String,                                 !- Feature Data Type 69
  2013,                                   !- Feature Value 69
  year_bin_of_last_service_water_heating_replacement, !- Feature Name 70
  String,                                 !- Feature Data Type 70
  2004,                                   !- Feature Value 70
  energy_code_in_force_during_last_interior_equipment_replacement, !- Feature Name 71
  String,                                 !- Feature Data Type 71
  ComStock 90.1-2004,                     !- Feature Value 71
  energy_code_in_force_during_last_service_water_heating_replacement, !- Feature Name 72
  String,                                 !- Feature Data Type 72
  ComStock DOE Ref 1980-2004,             !- Feature Value 72
  energy_code_followed_during_last_interior_equipment_replacement, !- Feature Name 73
  String,                                 !- Feature Data Type 73
  ComStock 90.1-2004,                     !- Feature Value 73
  energy_code_followed_during_last_service_water_heating_replacement, !- Feature Name 74
  String,                                 !- Feature Data Type 74
  ComStock DOE Ref 1980-2004,             !- Feature Value 74
  building_size_lighting_tech,            !- Feature Name 75
  String,                                 !- Feature Data Type 75
  small,                                  !- Feature Value 75
  energy_code_compliance_exterior_lighting, !- Feature Name 76
  String,                                 !- Feature Data Type 76
  comply,                                 !- Feature Value 76
  energy_code_compliance_interior_lighting, !- Feature Name 77
  String,                                 !- Feature Data Type 77
  lead,                                   !- Feature Value 77
  ltg_sch_base_peak_ratio_type,           !- Feature Name 78
  String,                                 !- Feature Data Type 78
  education_school_ltg_bpr_no_strict_schedule_towards_on, !- Feature Value 78
  ltg_sch_weekday_base_peak_ratio,        !- Feature Name 79
  String,                                 !- Feature Data Type 79
  0.95,                                   !- Feature Value 79
  ltg_sch_weekend_base_peak_ratio,        !- Feature Name 80
  String,                                 !- Feature Data Type 80
  0.85,                                   !- Feature Value 80
  year_bin_of_last_exterior_lighting_replacement, !- Feature Name 81
  String,                                 !- Feature Data Type 81
  2018,                                   !- Feature Value 81
  year_bin_of_last_interior_lighting_replacement, !- Feature Name 82
  String,                                 !- Feature Data Type 82
  2017,                                   !- Feature Value 82
  energy_code_in_force_during_last_exterior_lighting_replacement, !- Feature Name 83
  String,                                 !- Feature Data Type 83
  ComStock 90.1-2010,                     !- Feature Value 83
  energy_code_in_force_during_last_interior_lighting_replacement, !- Feature Name 84
  String,                                 !- Feature Data Type 84
  ComStock 90.1-2010,                     !- Feature Value 84
  lighting_generation,                    !- Feature Name 85
  String,                                 !- Feature Data Type 85
  gen4_led,                               !- Feature Value 85
  energy_code_followed_during_last_exterior_lighting_replacement, !- Feature Name 86
  String,                                 !- Feature Data Type 86
  ComStock 90.1-2010,                     !- Feature Value 86
  energy_code_followed_during_last_interior_lighting_replacement, !- Feature Name 87
  String,                                 !- Feature Data Type 87
  ComStock 90.1-2019,                     !- Feature Value 87
  energy_code_compliance_roof,            !- Feature Name 88
  String,                                 !- Feature Data Type 88
  comply,                                 !- Feature Value 88
  energy_code_compliance_walls,           !- Feature Name 89
  String,                                 !- Feature Data Type 89
  comply,                                 !- Feature Value 89
  energy_code_compliance_windows,         !- Feature Name 90
  String,                                 !- Feature Data Type 90
  comply,                                 !- Feature Value 90
  year_bin_of_last_roof_replacement,      !- Feature Name 91
  String,                                 !- Feature Data Type 91
  pre_1978,                               !- Feature Value 91
  year_bin_of_last_walls_replacement,     !- Feature Name 92
  String,                                 !- Feature Data Type 92
  pre_1978,                               !- Feature Value 92
  year_bin_of_last_windows_replacement,   !- Feature Name 93
  String,                                 !- Feature Data Type 93
  pre_1978,                               !- Feature Value 93
  energy_code_in_force_during_last_roof_replacement, !- Feature Name 94
  String,                                 !- Feature Data Type 94
  ComStock DOE Ref Pre-1980,              !- Feature Value 94
  energy_code_in_force_during_last_walls_replacement, !- Feature Name 95
  String,                                 !- Feature Data Type 95
  ComStock DOE Ref Pre-1980,              !- Feature Value 95
  energy_code_in_force_during_last_windows_replacement, !- Feature Name 96
  String,                                 !- Feature Data Type 96
  ComStock DOE Ref Pre-1980,              !- Feature Value 96
  energy_code_followed_during_last_roof_replacement, !- Feature Name 97
  String,                                 !- Feature Data Type 97
  ComStock DOE Ref Pre-1980,              !- Feature Value 97
  energy_code_followed_during_last_walls_replacement, !- Feature Name 98
  String,                                 !- Feature Data Type 98
  ComStock DOE Ref Pre-1980,              !- Feature Value 98
  energy_code_followed_during_last_windows_replacement, !- Feature Name 99
  String,                                 !- Feature Data Type 99
  ComStock DOE Ref Pre-1980,              !- Feature Value 99
  baseline_window_type,                   !- Feature Name 100
  String,                                 !- Feature Data Type 100
  Single - No LowE - Clear - Wood,        !- Feature Value 100
  baseline_hvac_sizing,                   !- Feature Name 101
  String,                                 !- Feature Data Type 101
  hardsize,                               !- Feature Value 101
  nhgis_tract_gisjoin,                    !- Feature Name 102
  String,                                 !- Feature Data Type 102
  G2700790950200,                         !- Feature Value 102
  nhgis_county_gisjoin,                   !- Feature Name 103
  String,                                 !- Feature Data Type 103
  G2700790,                               !- Feature Value 103
  nhgis_puma_gisjoin,                     !- Feature Name 104
  String,                                 !- Feature Data Type 104
  G27002300,                              !- Feature Value 104
  state_name,                             !- Feature Name 105
  String,                                 !- Feature Data Type 105
  Minnesota,                              !- Feature Value 105
  state_abbreviation,                     !- Feature Name 106
  String,                                 !- Feature Data Type 106
  MN,                                     !- Feature Value 106
  census_division_name,                   !- Feature Name 107
  String,                                 !- Feature Data Type 107
  West North Central,                     !- Feature Value 107
  census_region_name,                     !- Feature Name 108
  String,                                 !- Feature Data Type 108
  Midwest,                                !- Feature Value 108
  census_division_name_recs,              !- Feature Name 109
  String,                                 !- Feature Data Type 109
  West North Central,                     !- Feature Value 109
  american_housing_survey_region,         !- Feature Name 110
  String,                                 !- Feature Data Type 110
  Non-CBSA West North Central,            !- Feature Value 110
  weather_file_2018,                      !- Feature Name 111
  String,                                 !- Feature Data Type 111
  USA_MN_Mankata.Rgnl.Arpt.726585_2018.epw, !- Feature Value 111
  weather_file_TMY3,                      !- Feature Name 112
  String,                                 !- Feature Data Type 112
  Mankato_Awos,                           !- Feature Value 112
  climate_zone_building_america,          !- Feature Name 113
  String,                                 !- Feature Data Type 113
  Cold,                                   !- Feature Value 113
  climate_zone_ashrae_2006,               !- Feature Name 114
  String,                                 !- Feature Data Type 114
  6A,                                     !- Feature Value 114
  iso_region,                             !- Feature Name 115
  String,                                 !- Feature Data Type 115
  MISO,                                   !- Feature Value 115
  reeds_balancing_area,                   !- Feature Name 116
  String,                                 !- Feature Data Type 116
  43,                                     !- Feature Value 116
  resstock_county_id,                     !- Feature Name 117
  String,                                 !- Feature Data Type 117
  MN&#44 Le Sueur County,                 !- Feature Value 117
  resstock_puma_id,                       !- Feature Name 118
  String,                                 !- Feature Data Type 118
  MN&#44 02300,                           !- Feature Value 118
  resstock_custom_region,                 !- Feature Name 119
  String,                                 !- Feature Data Type 119
  CR02,                                   !- Feature Value 119
  cambium_grid_region,                    !- Feature Name 120
  String,                                 !- Feature Data Type 120
  MROWc,                                  !- Feature Value 120
  cluster_id,                             !- Feature Name 121
  String,                                 !- Feature Data Type 121
  21,                                     !- Feature Value 121
  cluster_name,                           !- Feature Name 122