
OS:Version,
  {61a2fba6-c424-40f4-a63e-b933fed36091}, !- Handle
  3.10.0;                                 !- Version Identifier

OS:Building,
  {a980c72a-5e77-4e7d-a19d-14477676016b}, !- Handle
  ComStock 90.1-2010|LargeHotel,          !- Name
  ,                                       !- Building Sector Type
  270,                                    !- North Axis {deg}
  ,                                       !- Nominal Floor to Floor Height {m}
  ,                                       !- Space Type Name
  {d6afb9cb-6e6c-4aee-80cb-6cb1bfbb537a}, !- Default Construction Set Name
  {b98e02c6-40a5-4b6d-8768-9bb3e079263d}, !- Default Schedule Set Name
  ,                                       !- Standards Number of Stories
  ,                                       !- Standards Number of Above Ground Stories
  ,                                       !- Standards Template
  LargeHotel;                             !- Standards Building Type

OS:Facility,
  {9eb32ba2-2719-4b7d-91b9-5cb99fa606df}; !- Handle

OS:Site,
  {7941567e-e045-4918-98c7-c93113fb85da}, !- Handle
  Denver Internationa_CO_USA,             !- Name
  39.83,                                  !- Latitude {deg}
  -104.66,                                !- Longitude {deg}
  -7,                                     !- Time Zone {hr}
  1655,                                   !- Elevation {m}
  City;                                   !- Terrain

OS:SimulationControl,
  {aab83bd4-5636-4673-940f-37de8ea92e91}, !- Handle
  Yes,                                    !- Do Zone Sizing Calculation
  Yes,                                    !- Do System Sizing Calculation
  Yes,                                    !- Do Plant Sizing Calculation
  No,                                     !- Run Simulation for Sizing Periods
  Yes,                                    !- Run Simulation for Weather File Run Periods
  ,                                       !- Loads Convergence Tolerance Value {W}
  ,                                       !- Temperature Convergence Tolerance Value {deltaC}
  ,                                       !- Solar Distribution
  ,                                       !- Maximum Number of Warmup Days
  ,                                       !- Minimum Number of Warmup Days
  No,                                     !- Do HVAC Sizing Simulation for Sizing Periods
  1;                                      !- Maximum Number of HVAC Sizing Simulation Passes

OS:Sizing:Parameters,
  {665354a4-5486-4f82-a09e-cb2ec8ec2ad6}, !- Handle
  1.25,                                   !- Heating Sizing Factor
  1.15;                                   !- Cooling Sizing Factor

OS:Timestep,
  {38e17014-66d2-4e36-a422-14c1f0fe92b2}, !- Handle
  4;                                      !- Number of Timesteps per Hour

OS:ShadowCalculation,
  {d4ea785f-f35a-46bc-bf64-14f8b6a15d87}, !- Handle
  PolygonClipping,                        !- Shading Calculation Method
  ,                                       !- Shading Calculation Update Frequency Method
  20,                                     !- Shading Calculation Update Frequency
  15000,                                  !- Maximum Figures in Shadow Overlap Calculations
  ,                                       !- Polygon Clipping Algorithm
  512,                                    !- Pixel Counting Resolution
  ,                                       !- Sky Diffuse Modeling Algorithm
  No,                                     !- Output External Shading Calculation Results
  No,                                     !- Disable Self-Shading Within Shading Zone Groups
  No;                                     !- Disable Self-Shading From Shading Zone Groups to Other Zones

OS:HeatBalanceAlgorithm,
  {9243110a-c8e0-4ecf-85b4-3787b8dba36e}, !- Handle
  ConductionTransferFunction,             !- Algorithm
  200;                                    !- Surface Temperature Upper Limit {C}

OS:RunPeriod,
  {0b98e3e2-fd84-4b12-ba48-492b0df0d720}, !- Handle
  Run Period 1,                           !- Name
  1,                                      !- Begin Month
  1,                                      !- Begin Day of Month
  12,                                     !- End Month
  31,                                     !- End Day of Month
  ,                                       !- Use Weather File Holidays and Special Days
  ,                                       !- Use Weather File Daylight Saving Period
  ,                                       !- Apply Weekend Holiday Rule
  ,                                       !- Use Weather File Rain Indicators
  ,                                       !- Use Weather File Snow Indicators
  ;                                       !- Number of Times Runperiod to be Repeated

OS:LifeCycleCost:Parameters,
  {f370cad6-98d5-45f2-82cd-e1aef8862fbc}, !- Handle
  ,                                       !- Analysis Type
  ,                                       !- Discounting Convention
  ,                                       !- Inflation Approach
  ,                                       !- Real Discount Rate
  ,                                       !- Nominal Discount Rate
  ,                                       !- Inflation
  ,                                       !- Base Date Month
  ,                                       !- Base Date Year
  ,                                       !- Service Date Month
  ,                                       !- Service Date Year
  ;                                       !- Length of Study Period in Years

OS:WeatherFile,
  {064a288d-96dd-49c3-94c4-f4b7340a66e9}, !- Handle
  Denver Internationa,                    !- City
  CO,                                     !- State Province Region
  USA,                                    !- Country
  customized weather file,                !- Data Source
  725650,                                 !- WMO Number
  39.83,                                  !- Latitude {deg}
  -104.66,                                !- Longitude {deg}
  -7,                                     !- Time Zone {hr}
  1655,                                   !- Elevation {m}
  /weather/G0800310.epw,                  !- Url
  226BE93E,                               !- Checksum
  ,                                       !- Start Date Actual Year
  Friday;                                 !- Start Day of Week

OS:AdditionalProperties,
  {561ed10b-55f4-437a-8433-69853b8ee922}, !- Handle
  {a980c72a-5e77-4e7d-a19d-14477676016b}, !- Object Name
  Building,                               !- Feature Name 1
  String,                                 !- Feature Data Type 1
  6100,                                   !- Feature Value 1
  cook_fuel_broiler,                      !- Feature Name 2
  String,                                 !- Feature Data Type 2
  Gas,                                    !- Feature Value 2
  cook_fuel_fryer,                        !- Feature Name 3
  String,                                 !- Feature Data Type 3
  Electric,                               !- Feature Value 3
  cook_fuel_griddle,                      !- Feature Name 4
  String,                                 !- Feature Data Type 4
  Gas,                                    !- Feature Value 4
  cook_fuel_oven,                         !- Feature Name 5
  String,                                 !- Feature Data Type 5
  Gas,                                    !- Feature Value 5
  cook_fuel_range,                        !- Feature Name 6
  String,                                 !- Feature Data Type 6
  Gas,                                    !- Feature Value 6
  cook_fuel_steamer,                      !- Feature Name 7
  String,                                 !- Feature Data Type 7
  Gas,                                    !- Feature Value 7
  heating_fuel,                           !- Feature Name 8
  String,                                 !- Feature Data Type 8
  DistrictHeating,                        !- Feature Value 8
  hvac_system_type,                       !- Feature Name 9
  String,                                 !- Feature Data Type 9
  DOAS with fan coil district chilled water with district hot water, !- Feature Value 9
  rotation,                               !- Feature Name 10
  String,                                 !- Feature Data Type 10
  270,                                    !- Feature Value 10
  year_of_simulation,                     !- Feature Name 11
  String,                                 !- Feature Data Type 11
  2018,                                   !- Feature Value 11
  building_type,                          !- Feature Name 12
  String,                                 !- Feature Data Type 12
  large_hotel,                            !- Feature Value 12
  sampling_region,                        !- Feature Name 13
  String,                                 !- Feature Data Type 13
  4,                                      !- Feature Value 13
  size_bin,                               !- Feature Name 14
  String,                                 !- Feature Data Type 14
  1,                                      !- Feature Value 14
  building_area,                          !- Feature Name 15
  String,                                 !- Feature Data Type 15
  150001_200000,                          !- Feature Value 15
  tract,                                  !- Feature Name 16
  String,                                 !- Feature Data Type 16
  G0800310001702,                         !- Feature Value 16
  year_built,                             !- Feature Name 17
  String,                                 !- Feature Data Type 17
  2014,                                   !- Feature Value 17
  number_stories,                         !- Feature Name 18
  String,                                 !- Feature Data Type 18
  8,                                      !- Feature Value 18
  state_id,                               !- Feature Name 19
  String,                                 !- Feature Data Type 19
  G080,                                   !- Feature Value 19
  county_id,                              !- Feature Name 20
  String,                                 !- Feature Data Type 20
  G0800310,                               !- Feature Value 20
  building_subtype,                       !- Feature Name 21
  String,                                 !- Feature Data Type 21
  NA,                                     !- Feature Value 21
  census_region,                          !- Feature Name 22
  String,                                 !- Feature Data Type 22
  Mountain,                               !- Feature Value 22
  climate_zone,                           !- Feature Name 23
  String,                                 !- Feature Data Type 23
  5B,                                     !- Feature Value 23
  ground_thermal_conductivity,            !- Feature Name 24
  String,                                 !- Feature Data Type 24
  1.7,                                    !- Feature Value 24
  energy_code_compliance_during_original_building_construction, !- Feature Name 25
  String,                                 !- Feature Data Type 25
  comply,                                 !- Feature Value 25
  ownership_status,                       !- Feature Name 26
  String,                                 !- Feature Data Type 26
  owner_occupied,                         !- Feature Value 26
  party_responsible_for_operation,        !- Feature Name 27
  String,                                 !- Feature Data Type 27
  building_owner,                         !- Feature Value 27
  purchase_input_responsibility,          !- Feature Name 28
  String,                                 !- Feature Data Type 28
  building_owner,                         !- Feature Value 28
  year_bin_of_original_building_construction, !- Feature Name 29
  String,                                 !- Feature Data Type 29
  2014,                                   !- Feature Value 29
  energy_code_in_force_during_original_building_construction, !- Feature Name 30
  String,                                 !- Feature Data Type 30
  ComStock 90.1-2010,                     !- Feature Value 30
  window_wall_ratio,                      !- Feature Name 31
  String,                                 !- Feature Data Type 31
  11_25pct,                               !- Feature Value 31
  energy_code_followed_during_original_building_construction, !- Feature Name 32
  String,                                 !- Feature Data Type 32
  ComStock 90.1-2010,                     !- Feature Value 32
  building_shape,                         !- Feature Name 33
  String,                                 !- Feature Data Type 33
  2,                                      !- Feature Value 33
  service_water_heating_fuel,             !- Feature Name 34
  String,                                 !- Feature Data Type 34
  NaturalGas,                             !- Feature Value 34
  wall_construction_type,                 !- Feature Name 35
  String,                                 !- Feature Data Type 35
  mass,                                   !- Feature Value 35
  weekday_start_time,                     !- Feature Name 36
  String,                                 !- Feature Data Type 36
  5.25,                                   !- Feature Value 36
  weekend_start_time,                     !- Feature Name 37
  String,                                 !- Feature Data Type 37
  8.5,                                    !- Feature Value 37
  thermal_bridging,                       !- Feature Name 38
  String,                                 !- Feature Data Type 38
  mass unmitigated,                       !- Feature Value 38
  airtightness,                           !- Feature Name 39
  String,                                 !- Feature Data Type 39
  20.0,                                   !- Feature Value 39
  aspect_ratio,                           !- Feature Name 40
  String,                                 !- Feature Data Type 40
  1,                                      !- Feature Value 40
  weekday_duration,                       !- Feature Name 41
  String,                                 !- Feature Data Type 41
  12.25,                                  !- Feature Value 41
  weekend_duration,                       !- Feature Name 42
  String,                                 !- Feature Data Type 42
  13.25,                                  !- Feature Value 42
  energy_code_compliance_hvac,            !- Feature Name 43
  String,                                 !- Feature Data Type 43
  comply,                                 !- Feature Value 43
  fault_economizer_damper_fully_closed,   !- Feature Name 44
  String,                                 !- Feature Data Type 44
  No fault,                               !- Feature Value 44
  hvac_night_variability,                 !- Feature Name 45
  String,                                 !- Feature Data Type 45
  default_nochange,                       !- Feature Value 45
  hvac_tst_clg_delta_f,                   !- Feature Name 46
  String,                                 !- Feature Data Type 46
  999,                                    !- Feature Value 46
  hvac_tst_clg_sp_f,                      !- Feature Name 47
  String,                                 !- Feature Data Type 47
  999,                                    !- Feature Value 47
  hvac_tst_htg_delta_f,                   !- Feature Name 48
  String,                                 !- Feature Data Type 48
  999,                                    !- Feature Value 48
  hvac_tst_htg_sp_f,                      !- Feature Name 49
  String,                                 !- Feature Data Type 49
  999,                                    !- Feature Value 49
  year_bin_of_last_hvac_replacement,      !- Feature Name 50
  String,                                 !- Feature Data Type 50
  2014,                                   !- Feature Value 50
  year_bin_of_last_refrigeration_replacement, !- Feature Name 51
  String,                                 !- Feature Data Type 51
  2014,                                   !- Feature Value 51
  include_refrigeration_technology_level, !- Feature Name 52
  String,                                 !- Feature Data Type 52
  yes,                                    !- Feature Value 52
  refrigeration_technology_level,         !- Feature Name 53
  String,                                 !- Feature Data Type 53
  old,                                    !- Feature Value 53
  energy_code_in_force_during_last_hvac_replacement, !- Feature Name 54
  String,                                 !- Feature Data Type 54
  ComStock 90.1-2010,                     !- Feature Value 54
  energy_code_followed_during_last_hvac_replacement, !- Feature Name 55
  String,                                 !- Feature Data Type 55
  ComStock 90.1-2010,                     !- Feature Value 55
  fault_economizer_db_limit,              !- Feature Name 56
  String,                                 !- Feature Data Type 56
  NA,                                     !- Feature Value 56
  cook_dining_type,                       !- Feature Name 57
  String,                                 !- Feature Data Type 57
  Hotel B,                                !- Feature Value 57
  cook_fryers_counts,                     !- Feature Name 58
  String,                                 !- Feature Data Type 58
  2.0,                                    !- Feature Value 58
  cook_griddles_counts,                   !- Feature Name 59
  String,                                 !- Feature Data Type 59
  1.0,                                    !- Feature Value 59
  cook_ovens_counts,                      !- Feature Name 60
  String,                                 !- Feature Data Type 60
  1.0,                                    !- Feature Value 60
  cook_ranges_counts,                     !- Feature Name 61
  String,                                 !- Feature Data Type 61
  1.0,                                    !- Feature Value 61
  cook_steamers_counts,                   !- Feature Name 62
  String,                                 !- Feature Data Type 62
  1.0,                                    !- Feature Value 62
  cook_broiler_counts,                    !- Feature Name 63
  String,                                 !- Feature Data Type 63
  1.0,                                    !- Feature Value 63
  energy_code_compliance_service_water_heating, !- Feature Name 64
  String,                                 !- Feature Data Type 64
  comply,                                 !- Feature Value 64
  energy_code_compliance_interior_equipment, !- Feature Name 65
  String,                                 !- Feature Data Type 65
  comply,                                 !- Feature Value 65
  plugload_sch_base_peak_ratio_type,      !- Feature Name 66
  String,                                 !- Feature Data Type 66
  no_modification,                        !- Feature Value 66
  plugload_sch_weekday_base_peak_ratio,   !- Feature Name 67
  String,                                 !- Feature Data Type 67
  NA,                                     !- Feature Value 67
  plugload_sch_weekend_base_peak_ratio,   !- Feature Name 68
  String,                                 !- Feature Data Type 68
  NA,                                     !- Feature Value 68
  year_bin_of_last_interior_equipment_replacement, !- Feature Name 69
  String,                                 !- Feature Data Type 69
  2014,                                   !- Feature Value 69
  year_bin_of_last_service_water_heating_replacement, !- Feature Name 70
  String,                                 !- Feature Data Type 70
  2014,                                   !- Feature Value 70
  energy_code_in_force_during_last_interior_equipment_replacement, !- Feature Name 71
  String,                                 !- Feature Data Type 71
  ComStock 90.1-2010,                     !- Feature Value 71
  energy_code_in_force_during_last_service_water_heating_replacement, !- Feature Name 72
  String,                                 !- Feature Data Type 72
  ComStock 90.1-2010,                     !- Feature Value 72
  energy_code_followed_during_last_interior_equipment_replacement, !- Feature Name 73
  String,                                 !- Feature Data Type 73
  ComStock 90.1-2010,                     !- Feature Value 73
  energy_code_followed_during_last_service_water_heating_replacement, !- Feature Name 74
  String,                                 !- Feature Data Type 74
  ComStock 90.1-2010,                     !- Feature Value 74
  building_size_lighting_tech,            !- Feature Name 75
  String,                                 !- Feature Data Type 75
  large,                                  !- Feature Value 75
  energy_code_compliance_exterior_lighting, !- Feature Name 76
  String,                                 !- Feature Data Type 76
  comply,                                 !- Feature Value 76
  energy_code_compliance_interior_lighting, !- Feature Name 77
  String,                                 !- Feature Data Type 77
  lead,                                   !- Feature Value 77
  ltg_sch_base_peak_ratio_type,           !- Feature Name 78
  String,                                 !- Feature Data Type 78
  no_modification,                        !- Feature Value 78
  ltg_sch_weekday_base_peak_ratio,        !- Feature Name 79
  String,                                 !- Feature Data Type 79
  NA,                                     !- Feature Value 79
  ltg_sch_weekend_base_peak_ratio,        !- Feature Name 80
  String,                                 !- Feature Data Type 80
  NA,                                     !- Feature Value 80
  year_bin_of_last_exterior_lighting_replacement, !- Feature Name 81
  String,                                 !- Feature Data Type 81
  2014,                                   !- Feature Value 81
  year_bin_of_last_interior_lighting_replacement, !- Feature Name 82
  String,                                 !- Feature Data Type 82
  2014,                                   !- Feature Value 82
  energy_code_in_force_during_last_exterior_lighting_replacement, !- Feature Name 83
  String,                                 !- Feature Data Type 83
  ComStock 90.1-2010,                     !- Feature Value 83
  energy_code_in_force_during_last_interior_lighting_replacement, !- Feature Name 84
  String,                                 !- Feature Data Type 84
  ComStock 90.1-2010,                     !- Feature Value 84
  lighting_generation,                    !- Feature Name 85
  String,                                 !- Feature Data Type 85
  gen2_t8_halogen,                        !- Feature Value 85
  energy_code_followed_during_last_exterior_lighting_replacement, !- Feature Name 86
  String,                                 !- Feature Data Type 86
  ComStock 90.1-2010,                     !- Feature Value 86
  energy_code_followed_during_last_interior_lighting_replacement, !- Feature Name 87
  String,                                 !- Feature Data Type 87
  ComStock 90.1-2019,                     !- Feature Value 87
  energy_code_compliance_roof,            !- Feature Name 88
  String,                                 !- Feature Data Type 88
  comply,                                 !- Feature Value 88
  energy_code_compliance_walls,           !- Feature Name 89
  String,                                 !- Feature Data Type 89
  comply,                                 !- Feature Value 89
  energy_code_compliance_windows,         !- Feature Name 90
  String,                                 !- Feature Data Type 90
  comply,                                 !- Feature Value 90
  year_bin_of_last_roof_replacement,      !- Feature Name 91
  String,                                 !- Feature Data Type 91
  2014,                                   !- Feature Value 91
  year_bin_of_last_walls_replacement,     !- Feature Name 92
  String,                                 !- Feature Data Type 92
  2014,                                   !- Feature Value 92
  year_bin_of_last_windows_replacement,   !- Feature Name 93
  String,                                 !- Feature Data Type 93
  2014,                                   !- Feature Value 93
  energy_code_in_force_during_last_roof_replacement, !- Feature Name 94
  String,                                 !- Feature Data Type 94
  ComStock 90.1-2010,                     !- Feature Value 94
  energy_code_in_force_during_last_walls_replacement, !- Feature Name 95
  String,                                 !- Feature Data Type 95
  ComStock 90.1-2010,                     !- Feature Value 95
  energy_code_in_force_during_last_windows_replacement, !- Feature Name 96
  String,                                 !- Feature Data Type 96
  ComStock 90.1-2010,                     !- Feature Value 96
  energy_code_followed_during_last_roof_replacement, !- Feature Name 97
  String,                                 !- Feature Data Type 97
  ComStock 90.1-2010,                     !- Feature Value 97
  energy_code_followed_during_last_walls_replacement, !- Feature Name 98
  String,                                 !- Feature Data Type 98
  ComStock 90.1-2010,                     !- Feature Value 98
  energy_code_followed_during_last_windows_replacement, !- Feature Name 99
  String,                                 !- Feature Data Type 99
  ComStock 90.1-2010,                     !- Feature Value 99
  baseline_window_type,                   !- Feature Name 100
  String,                                 !- Feature Data Type 100
  Double - LowE - Clear - Thermally Broken Aluminum, !- Feature Value 100
  baseline_hvac_sizing,                   !- Feature Name 101
  String,                                 !- Feature Data Type 101
  hardsize,                               !- Feature Value 101
  nhgis_tract_gisjoin,                    !- Feature Name 102
  String,                                 !- Feature Data Type 102
  G0800310001702,                         !- Feature Value 102
  nhgis_county_gisjoin,                   !- Feature Name 103
  String,                                 !- Feature Data Type 103
  G0800310,                               !- Feature Value 103
  nhgis_puma_gisjoin,                     !- Feature Name 104
  String,                                 !- Feature Data Type 104
  G08000813,                              !- Feature Value 104
  state_name,                             !- Feature Name 105
  String,                                 !- Feature Data Type 105
  Colorado,                               !- Feature Value 105
  state_abbreviation,                     !- Feature Name 106
  String,                                 !- Feature Data Type 106
  CO,                                     !- Feature Value 106
  census_division_name,                   !- Feature Name 107
  String,                                 !- Feature Data Type 107
  Mountain,                               !- Feature Value 107
  census_region_name,                     !- Feature Name 108
  String,                                 !- Feature Data Type 108
  West,                                   !- Feature Value 108
  census_division_name_recs,              !- Feature Name 109
  String,                                 !- Feature Data Type 109
  Mountain North,                         !- Feature Value 109
  american_housing_survey_region,         !- Feature Name 110
  String,                                 !- Feature Data Type 110
  Non-CBSA Mountain,                      !- Feature Value 110
  weather_file_2018,                      !- Feature Name 111
  String,                                 !- Feature Data Type 111
  USA_CO_Denver.Internationa.725650_2018.epw, !- Feature Value 111
  weather_file_TMY3,                      !- Feature Name 112
  String,                                 !- Feature Data Type 112
  Aurora_Buckley_Field_Angb,              !- Feature Value 112
  climate_zone_building_america,          !- Feature Name 113
  String,                                 !- Feature Data Type 113
  Cold,                                   !- Feature Value 113
  climate_zone_ashrae_2006,               !- Feature Name 114
  String,                                 !- Feature Data Type 114
  5B,                                     !- Feature Value 114
  iso_region,                             !- Feature Name 115
  String,                                 !- Feature Data Type 115
  NotApplicable,                          !- Feature Value 115
  reeds_balancing_area,                   !- Feature Name 116
  String,                                 !- Feature Data Type 116
  33,                                     !- Feature Value 116
  resstock_county_id,                     !- Feature Name 117
  String,                                 !- Feature Data Type 117
  CO&#44 Denver County,                   !- Feature Value 117
  resstock_puma_id,                       !- Feature Name 118
  String,                                 !- Feature Data Type 118
  CO&#44 00813,                           !- Feature Value 118
  resstock_custom_region,                 !- Feature Name 119
  String,                                 !- Feature Data Type 119
  CR05,                                   !- Feature Value 119
  cambium_grid_region,                    !- Feature Name 120
  String,                                 !- Feature Data Type 120
  RMPAc,                                  !- Feature Value 120
  cluster_id,                             !- Feature Name 121
  String,                                 !- Feature Data Type 121
  36,                                     !- Feature Value 121
  cluster_name,                           !- Feature Name 122