
OS:Version,
  {fef3c91a-8972-449c-bc46-443117575bf8}, !- Handle
  3.6.1;                                  !- Version Identifier

OS:Facility,
  {1991575e-a000-467a-90c8-0bf565c8da9c}; !- Handle

OS:Site,
  {f9d23067-76e1-4fcb-bbf4-ad519cefbb11}, !- Handle
  CA_LOS-ANGELES-DOWNTOWN-,               !- Name
  34.02,                                  !- Latitude {deg}
  -118.29,                                !- Longitude {deg}
  -8,                                     !- Time Zone {hr}
  54,                                     !- Elevation {m}
  City;                                   !- Terrain

OS:SimulationControl,
  {53e73378-b656-4562-a31d-37737d107dfe}, !- Handle
  ,                                       !- Do Zone Sizing Calculation
  ,                                       !- Do System Sizing Calculation
  ,                                       !- Do Plant Sizing Calculation
  No,                                     !- Run Simulation for Sizing Periods
  Yes,                                    !- Run Simulation for Weather File Run Periods
  ,                                       !- Loads Convergence Tolerance Value {W}
  ,                                       !- Temperature Convergence Tolerance Value {deltaC}
  ,                                       !- Solar Distribution
  ,                                       !- Maximum Number of Warmup Days
  ,                                       !- Minimum Number of Warmup Days
  No,                                     !- Do HVAC Sizing Simulation for Sizing Periods
  1;                                      !- Maximum Number of HVAC Sizing Simulation Passes

OS:Sizing:Parameters,
  {a9d6bc58-6326-40ba-a0ae-80932a5a8e2e}, !- Handle
  1.25,                                   !- Heating Sizing Factor
  1.15;                                   !- Cooling Sizing Factor

OS:Timestep,
  {319d7e33-b5fe-4dbf-887e-581f60e93fd4}, !- Handle
  4;                                      !- Number of Timesteps per Hour

OS:ShadowCalculation,
  {d9fa25a2-32b7-4a14-b3f4-7996aeef8f5c}, !- Handle
  PolygonClipping,                        !- Shading Calculation Method
  ,                                       !- Shading Calculation Update Frequency Method
  20,                                     !- Shading Calculation Update Frequency
  15000,                                  !- Maximum Figures in Shadow Overlap Calculations
  ,                                       !- Polygon Clipping Algorithm
  512,                                    !- Pixel Counting Resolution
  ,                                       !- Sky Diffuse Modeling Algorithm
  No,                                     !- Output External Shading Calculation Results
  No,                                     !- Disable Self-Shading Within Shading Zone Groups
  No;                                     !- Disable Self-Shading From Shading Zone Groups to Other Zones

OS:HeatBalanceAlgorithm,
  {7f58d0e2-c172-4e30-9b9f-2af0dfd4119b}, !- Handle
  ConductionTransferFunction,             !- Algorithm
  200;                                    !- Surface Temperature Upper Limit {C}

OS:RunPeriod,
  {9796c76c-b068-4180-8cd3-4e8afa00293f}, !- Handle
  Run Period 1,                           !- Name
  1,                                      !- Begin Month
  1,                                      !- Begin Day of Month
  12,                                     !- End Month
  31,                                     !- End Day of Month
  ,                                       !- Use Weather File Holidays and Special Days
  ,                                       !- Use Weather File Daylight Saving Period
  ,                                       !- Apply Weekend Holiday Rule
  ,                                       !- Use Weather File Rain Indicators
  ,                                       !- Use Weather File Snow Indicators
  ;                                       !- Number of Times Runperiod to be Repeated

OS:LifeCycleCost:Parameters,
  {fda8826f-9edd-44a5-99d5-4474fc36b2e4}, !- Handle
  ,                                       !- Analysis Type
  ,                                       !- Discounting Convention
  ,                                       !- Inflation Approach
  ,                                       !- Real Discount Rate
  ,                                       !- Nominal Discount Rate
  ,                                       !- Inflation
  ,                                       !- Base Date Month
  ,                                       !- Base Date Year
  ,                                       !- Service Date Month
  ,                                       !- Service Date Year
  ;                                       !- Length of Study Period in Years

OS:Site:WaterMainsTemperature,
  {144cd80d-ed0d-44fe-853d-d4414d8b577f}, !- Handle
  Correlation,                            !- Calculation Method
  ,                                       !- Temperature Schedule Name
  18.7358333333333,                       !- Annual Average Outdoor Air Temperature {C}
  20.53;                                  !- Maximum Difference In Monthly Average Outdoor Air Temperatures {deltaC}

OS:ClimateZones,
  {19bcfb3e-dbe6-436b-a19d-de54041782ad}, !- Handle
  ASHRAE,                                 !- Climate Zone Institution Name 1
  ANSI/ASHRAE Standard 169,               !- Climate Zone Document Name 1
  2006,                                   !- Climate Zone Document Year 1
  ASHRAE 169-2013-3A,                     !- Climate Zone Value 1
  CEC,                                    !- Climate Zone Institution Name 2
  California Climate Zone Descriptions,   !- Climate Zone Document Name 2
  1995,                                   !- Climate Zone Document Year 2
  ;                                       !- Climate Zone Value 2

OS:Building,
  {92031a14-ad75-45d5-a3a8-5c40441e19fa}, !- Handle
  ComStock DOE Ref 1980-2004|SmallOffice, !- Name
  ,                                       !- Building Sector Type
  315,                                    !- North Axis {deg}
  ,                                       !- Nominal Floor to Floor Height {m}
  ,                                       !- Space Type Name
  {b859f264-76f9-4fc9-ba6f-5060eedd7102}, !- Default Construction Set Name
  {b4071fb4-c221-4b9c-addf-7f5a2b0ccf50}, !- Default Schedule Set Name
  ,                                       !- Standards Number of Stories
  ,                                       !- Standards Number of Above Ground Stories
  ,                                       !- Standards Template
  Office;                                 !- Standards Building Type

OS:AdditionalProperties,
  {2e7df5ba-8e9e-4ef2-94ef-a73d49817c4a}, !- Handle
  {92031a14-ad75-45d5-a3a8-5c40441e19fa}, !- Object Name
  grid_region,                            !- Feature Name 1
  String,                                 !- Feature Data Type 1
  SRSOc,                                  !- Feature Value 1
  hvac_system_type,                       !- Feature Name 2
  String,                                 !- Feature Data Type 2
  PSZ-AC with gas coil,                   !- Feature Value 2
  wall_as_constructed_template,           !- Feature Name 3
  String,                                 !- Feature Data Type 3
  ComStock DOE Ref 1980-2004,             !- Feature Value 3
  wall_template,                          !- Feature Name 4
  String,                                 !- Feature Data Type 4
  ComStock DOE Ref 1980-2004,             !- Feature Value 4
  roof_as_constructed_template,           !- Feature Name 5
  String,                                 !- Feature Data Type 5
  ComStock DOE Ref 1980-2004,             !- Feature Value 5
  roof_template,                          !- Feature Name 6
  String,                                 !- Feature Data Type 6
  ComStock DOE Ref 1980-2004,             !- Feature Value 6
  exterior_lighting_as_constructed_template, !- Feature Name 7
  String,                                 !- Feature Data Type 7
  ComStock DOE Ref 1980-2004,             !- Feature Value 7
  exterior_lighting_template,             !- Feature Name 8
  String,                                 !- Feature Data Type 8
  ComStock DOE Ref 1980-2004,             !- Feature Value 8
  interior_equipment_as_constructed_template, !- Feature Name 9
  String,                                 !- Feature Data Type 9
  ComStock DOE Ref 1980-2004,             !- Feature Value 9
  interior_equipment_template,            !- Feature Name 10
  String,                                 !- Feature Data Type 10
  ComStock DOE Ref 1980-2004,             !- Feature Value 10
  service_water_heating_as_constructed_template, !- Feature Name 11
  String,                                 !- Feature Data Type 11
  ComStock DOE Ref 1980-2004,             !- Feature Value 11
  service_water_heating_template,         !- Feature Name 12
  String,                                 !- Feature Data Type 12
  ComStock 90.1-2013,                     !- Feature Value 12
  hvac_as_constructed_template,           !- Feature Name 13
  String,                                 !- Feature Data Type 13
  ComStock DOE Ref 1980-2004,             !- Feature Value 13
  hvac_template,                          !- Feature Name 14
  String,                                 !- Feature Data Type 14
  ComStock 90.1-2007;                     !- Feature Value 14

OS:SpaceType,
  {dc561fcd-0d73-4761-8e5a-f091a1131eea}, !- Handle
  Office WholeBuilding - Sm Office - ComStock DOE Ref 1980-2004, !- Name
  ,                                       !- Default Construction Set Name
  {94e1ea12-e297-4c5c-a529-d3e0f563dbd0}, !- Default Schedule Set Name
  {d3bea116-cbf8-4ec7-949e-0a318a091491}, !- Group Rendering Name
  {75a8a22a-00c7-4181-abb2-5975f74f1d92}, !- Design Specification Outdoor Air Object Name
  ,                                       !- Standards Template
  Office,                                 !- Standards Building Type
  WholeBuilding - Sm Office;              !- Standards Space Type

OS:Rendering:Color,
  {d3bea116-cbf8-4ec7-949e-0a318a091491}, !- Handle
  Office WholeBuilding - Sm Office,       !- Name
  120,                                    !- Rendering Red Value
  230,                                    !- Rendering Green Value
  199;                                    !- Rendering Blue Value

OS:BuildingStory,
  {92113418-246d-4967-800d-d6e4aeebc1e5}, !- Handle
  Story Ground,                           !- Name
  0,                                      !- Nominal Z Coordinate {m}
  3.048,                                  !- Nominal Floor to Floor Height {m}
  ,                                       !- Default Construction Set Name
  ,                                       !- Default Schedule Set Name
  ;                                       !- Group Rendering Name

OS:Space,
  {68bbe31a-d1b4-4bb2-8204-8cfff3365d30}, !- Handle
  Office WholeBuilding - Sm Office A end_a - Story Ground, !- Name
  {dc561fcd-0d73-4761-8e5a-f091a1131eea}, !- Space Type Name
  ,                                       !- Default Construction Set Name
  ,                                       !- Default Schedule Set Name
  -0,                                     !- Direction of Relative North {deg}
  13.1982271536748,                       !- X Origin {m}
  -13.1982271536748,                      !- Y Origin {m}
  0,                                      !- Z Origin {m}
  {92113418-246d-4967-800d-d6e4aeebc1e5}, !- Building Story Name
  {4673b940-4b8f-46fc-a5c5-9d2a30ce13e6}; !- Thermal Zone Name

OS:Surface,
  {be99c2f3-05a9-457e-ac3b-0c1d9d5b1819}, !- Handle
  Surface 1,                              !- Name
  Floor,                                  !- Surface Type
  {147476c1-1e6c-4811-bde1-e681df9e3620}, !- Construction Name
  {68bbe31a-d1b4-4bb2-8204-8cfff3365d30}, !- Space Name
  GroundFCfactorMethod,                   !- Outside Boundary Condition
  ,                                       !- Outside Boundary Condition Object
  NoSun,                                  !- Sun Exposure
  NoWind,                                 !- Wind Exposure
  ,                                       !- View Factor to Ground
  ,                                       !- Number of Vertices
  -4.44089209850063e-14, 4.61852778244065e-14, 0, !- X,Y,Z Vertex 1 {m}
  -4.572, 4.61852778244065e-14, 0,        !- X,Y,Z Vertex 2 {m}
  -4.572, 4.572, 0,                       !- X,Y,Z Vertex 3 {m}
  -4.44089209850063e-14, 4.572, 0;        !- X,Y,Z Vertex 4 {m}

OS:Surface,
  {7aba8d84-180b-4b08-a23e-8f80f08ed9f8}, !- Handle
  Surface 2,                              !- Name
  Wall,                                   !- Surface Type
  ,                                       !- Construction Name
  {68bbe31a-d1b4-4bb2-8204-8cfff3365d30}, !- Space Name
  Outdoors,                               !- Outside Boundary Condition
  ,                                       !- Outside Boundary Condition Object
  SunExposed,                             !- Sun Exposure
  WindExposed,                            !- Wind Exposure
  ,                                       !- View Factor to Ground
  ,                                       !- Number of Vertices
  -4.572, 4.61852778244065e-14, 3.048,    !- X,Y,Z Vertex 1 {m}
  -4.572, 4.61852778244065e-14, 0,        !- X,Y,Z Vertex 2 {m}
  -4.44089209850063e-14, 4.61852778244065e-14, 0, !- X,Y,Z Vertex 3 {m}
  -4.44089209850063e-14, 4.61852778244065e-14, 3.048; !- X,Y,Z Vertex 4 {m}

OS:Surface,
  {e3059fd3-2a99-44fe-8f45-9484811f0426}, !- Handle
  Surface 3,                              !- Name
  Wall,                                   !- Surface Type
  ,                                       !- Construction Name
  {68bbe31a-d1b4-4bb2-8204-8cfff3365d30}, !- Space Name
  Surface,                                !- Outside Boundary Condition
  {e1716b33-2048-48b6-abc1-60433926feff}, !- Outside Boundary Condition Object
  NoSun,                                  !- Sun Exposure
  NoWind,                                 !- Wind Exposure
  ,                                       !- View Factor to Ground
  ,                                       !- Number of Vertices
  -4.572, 4.572, 3.048,                   !- X,Y,Z Vertex 1 {m}
  -4.572, 4.572, 0,                       !- X,Y,Z Vertex 2 {m}
  -4.572, 4.61852778244065e-14, 0,        !- X,Y,Z Vertex 3 {m}
  -4.572, 4.61852778244065e-14, 3.048;    !- X,Y,Z Vertex 4 {m}

OS:Surface,
  {30dec58b-b814-4511-97fc-7e048cd1c580}, !- Handle
  Surface 4,                              !- Name
  Wall,                                   !- Surface Type
  ,                                       !- Construction Name
  {68bbe31a-d1b4-4bb2-8204-8cfff3365d30}, !- Space Name
  Surface,                                !- Outside Boundary Condition
  {830b926f-fcd3-44fa-abaa-6a39c1e101b0}, !- Outside Boundary Condition Object
  NoSun,                                  !- Sun Exposure
  NoWind,                                 !- Wind Exposure
  ,                                       !- View Factor to Ground
  ,                                       !- Number of Vertices
  -4.44089209850063e-14, 4.572, 3.048,    !- X,Y,Z Vertex 1 {m}
  -4.44089209850063e-14, 4.572, 0,        !- X,Y,Z Vertex 2 {m}
  -4.572, 4.572, 0,                       !- X,Y,Z Vertex 3 {m}
  -4.572, 4.572, 3.048;                   !- X,Y,Z Vertex 4 {m}

OS:Surface,
  {e78a0e3b-bec0-4aac-bd38-a0166eaead48}, !- Handle
  Surface 5,                              !- Name
  Wall,                                   !- Surface Type
  ,                                       !- Construction Name
  {68bbe31a-d1b4-4bb2-8204-8cfff3365d30}, !- Space Name
  Outdoors,                               !- Outside Boundary Condition
  ,                                       !- Outside Boundary Condition Object
  SunExposed,                             !- Sun Exposure
  WindExposed,                            !- Wind Exposure
  ,                                       !- View Factor to Ground
  ,                                       !- Number of Vertices
  -4.44089209850063e-14, 4.61852778244065e-14, 3.048, !- X,Y,Z Vertex 1 {m}
  -4.44089209850063e-14, 4.61852778244065e-14, 0, !- X,Y,Z Vertex 2 {m}
  -4.44089209850063e-14, 4.572, 0,        !- X,Y,Z Vertex 3 {m}
  -4.44089209850063e-14, 4.572, 3.048;    !- X,Y,Z Vertex 4 {m}

OS:Surface,
  {7e768f39-fa17-4fa3-b146-e5e51361c569}, !- Handle
  Surface 6,                              !- Name
  RoofCeiling,                            !- Surface Type
  ,                                       !- Construction Name
  {68bbe31a-d1b4-4bb2-8204-8cfff3365d30}, !- Space Name
  Outdoors,                               !- Outside Boundary Condition
  ,                                       !- Outside Boundary Condition Object
  SunExposed,                             !- Sun Exposure
  WindExposed,                            !- Wind Exposure
  ,                                       !- View Factor to Ground
  ,                                       !- Number of Vertices
  -4.44089209850063e-14, 4.572, 3.048,    !- X,Y,Z Vertex 1 {m}
  -4.572, 4.572, 3.048,                   !- X,Y,Z Vertex 2 {m}
  -4.572, 4.61852778244065e-14, 3.048,    !- X,Y,Z Vertex 3 {m}
  -4.44089209850063e-14, 4.61852778244065e-14, 3.048; !- X,Y,Z Vertex 4 {m}

OS:ThermalZone,
  {4673b940-4b8f-46fc-a5c5-9d2a30ce13e6}, !- Handle
  Zone Office WholeBuilding - Sm Office A end_a - Story Ground, !- Name
  1,                                      !- Multiplier
  ,                                       !- Ceiling Height {m}
  ,                                       !- Volume {m3}
  ,                                       !- Floor Area {m2}
  ,                                       !- Zone Inside Convection Algorithm
  ,                                       !- Zone Outside Convection Algorithm
  ,                                       !- Zone Conditioning Equipment List Name
  {31ef4fe0-2201-493b-92bc-39c6d056c6e8}, !- Zone Air Inlet Port List
  {679f5173-5782-45e2-91a2-ca1bc4ee3d53}, !- Zone Air Exhaust Port List
  {392135f3-7a33-4a74-ad16-f67cd634d7c8}, !- Zone Air Node Name
  {009a9a9b-4f33-4b85-99df-d4bcf38ea421}, !- Zone Return Air Port List
  ,                                       !- Primary Daylighting Control Name
  ,                                       !- Fraction of Zone Controlled by Primary Daylighting Control
  ,                                       !- Secondary Daylighting Control Name
  ,                                       !- Fraction of Zone Controlled by Secondary Daylighting Control
  ,                                       !- Illuminance Map Name
  ,                                       !- Group Rendering Name
  {2c371655-9117-47a2-8c43-8c757cde786d}, !- Thermostat Name
  No;                                     !- Use Ideal Air Loads

OS:Node,
  {83e7f212-9240-42b1-9edc-fff3f34af242}, !- Handle
  Zone Office WholeBuilding - Sm Office A end_a - Story Ground Zone Air Node, !- Name
  {392135f3-7a33-4a74-ad16-f67cd634d7c8}, !- Inlet Port
  ;                                       !- Outlet Port

OS:Connection,
  {392135f3-7a33-4a74-ad16-f67cd634d7c8}, !- Handle
  {4673b940-4b8f-46fc-a5c5-9d2a30ce13e6}, !- Source Object
  11,                                     !- Outlet Port
  {83e7f212-9240-42b1-9edc-fff3f34af242}, !- Target Object
  2;                                      !- Inlet Port

OS:PortList,
  {31ef4fe0-2201-493b-92bc-39c6d056c6e8}, !- Handle
  {4673b940-4b8f-46fc-a5c5-9d2a30ce13e6}, !- HVAC Component
  {5f6e159e-8e90-471f-93b1-e940460366d4}; !- Port 1

OS:PortList,
  {679f5173-5782-45e2-91a2-ca1bc4ee3d53}, !- Handle
  {4673b940-4b8f-46fc-a5c5-9d2a30ce13e6}; !- HVAC Component

OS:PortList,
  {009a9a9b-4f33-4b85-99df-d4bcf38ea421}, !- Handle
  {4673b940-4b8f-46fc-a5c5-9d2a30ce13e6}, !- HVAC Component
  {1e76dc7d-f1a4-4c27-a989-52dae5842ddf}; !- Port 1

OS:Sizing:Zone,
  {7b5db75d-d569-4a57-9887-44029f217d07}, !- Handle
  {4673b940-4b8f-46fc-a5c5-9d2a30ce13e6}, !- Zone or ZoneList Name
  SupplyAirTemperature,                   !- Zone Cooling Design Supply Air Temperature Input Method
  12.7777777777778,                       !- Zone Cooling Design Supply Air Temperature {C}
  11.11,                                  !- Zone Cooling Design Supply Air Temperature Difference {deltaC}
  SupplyAirTemperature,                   !- Zone Heating Design Supply Air Temperature Input Method
  50.0000000000001,                       !- Zone Heating Design Supply Air Temperature {C}
  11.11,                                  !- Zone Heating Design Supply Air Temperature Difference {deltaC}
  0.0085,                                 !- Zone Cooling Design Supply Air Humidity Ratio {kg-H2O/kg-air}
  0.008,                                  !- Zone Heating Design Supply Air Humidity Ratio {kg-H2O/kg-air}
  ,                                       !- Zone Heating Sizing Factor
  ,                                       !- Zone Cooling Sizing Factor
  DesignDay,                              !- Cooling Design Air Flow Method
  ,                                       !- Cooling Design Air Flow Rate {m3/s}
  ,                                       !- Cooling Minimum Air Flow per Zone Floor Area {m3/s-m2}
  ,                                       !- Cooling Minimum Air Flow {m3/s}
  ,                                       !- Cooling Minimum Air Flow Fraction
  DesignDay,                              !- Heating Design Air Flow Method
  ,                                       !- Heating Design Air Flow Rate {m3/s}
  ,                                       !- Heating Maximum Air Flow per Zone Floor Area {m3/s-m2}
  ,                                       !- Heating Maximum Air Flow {m3/s}
  ,                                       !- Heating Maximum Air Flow Fraction
  No,                                     !- Account for Dedicated Outdoor Air System
  NeutralSupplyAir,                       !- Dedicated Outdoor Air System Control Strategy
  autosize,                               !- Dedicated Outdoor Air Low Setpoint Temperature for Design {C}
  autosize,                               !- Dedicated Outdoor Air High Setpoint Temperature for Design {C}
  Sensible Load Only No Latent Load,      !- Zone Load Sizing Method
  HumidityRatioDifference,                !- Zone Latent Cooling Design Supply Air Humidity Ratio Input Method
  ,                                       !- Zone Dehumidification Design Supply Air Humidity Ratio {kgWater/kgDryAir}
  0.005,                                  !- Zone Cooling Design Supply Air Humidity Ratio Difference {kgWater/kgDryAir}
  HumidityRatioDifference,                !- Zone Latent Heating Design Supply Air Humidity Ratio Input Method
  ,                                       !- Zone Humidification Design Supply Air Humidity Ratio {kgWater/kgDryAir}
  0.005;                                  !- Zone Humidification Design Supply Air Humidity Ratio Difference {kgWater/kgDryAir}

OS:ZoneHVAC:EquipmentList,
  {c07a846c-c1d2-4126-999d-6ec7cd9aba78}, !- Handle
  Zone Office WholeBuilding - Sm Office A end_a - Story Ground Zone HVAC Equipment List, !- Name
  {4673b940-4b8f-46fc-a5c5-9d2a30ce13e6}, !- Thermal Zone
  ,                                       !- Load Distribution Scheme
  {1c5e9d5a-b826-4ee8-8786-c0789dcdd59d}, !- Zone Equipment 1
  1,                                      !- Zone Equipment Cooling Sequence 1
  1,                                      !- Zone Equipment Heating or No-Load Sequence 1
  ,                                       !- Zone Equipment Sequential Cooling Fraction Schedule Name 1
  ;                                       !- Zone Equipment Sequential Heating Fraction Schedule Name 1

OS:Space,
  {a8f72d0d-89f3-4e27-8d21-d7f807d2c8fc}, !- Handle
  Office WholeBuilding - Sm Office B end_a - Story Ground, !- Name
  {dc561fcd-0d73-4761-8e5a-f091a1131eea}, !- Space Type Name
  ,                                       !- Default Construction Set Name
  ,                                       !- Default Schedule Set Name
  -0,                                     !- Direction of Relative North {deg}
  8.62622715367484,                       !- X Origin {m}
  -13.1982271536748,                      !- Y Origin {m}
  0,                                      !- Z Origin {m}
  {92113418-246d-4967-800d-d6e4aeebc1e5}, !- Building Story Name
  {28620637-75f7-4511-8227-e5ce7bfae76f}; !- Thermal Zone Name

OS:Surface,
  {b0dc3dec-e9ae-48a5-a063-189e1d01d210}, !- Handle
  Surface 7,                              !- Name
  Floor,                                  !- Surface Type
  {554fda04-69ee-4db6-b11d-be1c3908195e}, !- Construction Name
  {a8f72d0d-89f3-4e27-8d21-d7f807d2c8fc}, !- Space Name
  GroundFCfactorMethod,                   !- Outside Boundary Condition
  ,                                       !- Outside Boundary Condition Object
  NoSun,                                  !- Sun Exposure
  NoWind,                                 !- Wind Exposure
  ,                                       !- View Factor to Ground
  ,                                       !- Number of Vertices
  -3.5527136788005e-15, 4.61852778244065e-14, 0, !- X,Y,Z Vertex 1 {m}
  -17.2524543073497, 4.61852778244065e-14, 0, !- X,Y,Z Vertex 2 {m}
  -17.2524543073497, 4.572, 0,            !- X,Y,Z Vertex 3 {m}
  -3.5527136788005e-15, 4.572, 0;         !- X,Y,Z Vertex 4 {m}

OS:Surface,
  {7c5ff525-4af3-4a0d-b48c-f6c67561d91b}, !- Handle
  Surface 8,                              !- Name
  Wall,                                   !- Surface Type
  ,                                       !- Construction Name
  {a8f72d0d-89f3-4e27-8d21-d7f807d2c8fc}, !- Space Name
  Outdoors,                               !- Outside Boundary Condition
  ,                                       !- Outside Boundary Condition Object
  SunExposed,                             !- Sun Exposure
  WindExposed,                            !- Wind Exposure
  ,                                       !- View Factor to Ground
  ,                                       !- Number of Vertices
  -17.2524543073497, 4.61852778244065e-14, 3.048, !- X,Y,Z Vertex 1 {m}
  -17.2524543073497, 4.61852778244065e-14, 0, !- X,Y,Z Vertex 2 {m}
  -3.5527136788005e-15, 4.61852778244065e-14, 0, !- X,Y,Z Vertex 3 {m}
  -3.5527136788005e-15, 4.61852778244065e-14, 3.048; !- X,Y,Z Vertex 4 {m}

OS:Surface,
  {839c1020-2fee-4e85-8a9e-c5847e449930}, !- Handle
  Surface 9,                              !- Name
  Wall,                                   !- Surface Type
  ,                                       !- Construction Name
  {a8f72d0d-89f3-4e27-8d21-d7f807d2c8fc}, !- Space Name
  Surface,                                !- Outside Boundary Condition
  {4fee2314-b557-4766-81d0-67613f935b94}, !- Outside Boundary Condition Object
  NoSun,                                  !- Sun Exposure
  NoWind,                                 !- Wind Exposure
  ,                                       !- View Factor to Ground
  ,                                       !- Number of Vertices
  -17.2524543073497, 4.572, 3.048,        !- X,Y,Z Vertex 1 {m}
  -17.2524543073497, 4.572, 0,            !- X,Y,Z Vertex 2 {m}
  -17.2524543073497, 4.61852778244065e-14, 0, !- X,Y,Z Vertex 3 {m}
  -17.2524543073497, 4.61852778244065e-14, 3.048; !- X,Y,Z Vertex 4 {m}

OS:Surface,
  {812d83fa-a034-485a-a9ca-2ca1092c1995}, !- Handle
  Surface 10,                             !- Name
  Wall,                                   !- Surface Type
  ,                                       !- Construction Name
  {a8f72d0d-89f3-4e27-8d21-d7f807d2c8fc}, !- Space Name
  Surface,                                !- Outside Boundary Condition
  {d2bc4162-8be5-4e48-a6f9-f2a51384cf4f}, !- Outside Boundary Condition Object
  NoSun,                                  !- Sun Exposure
  NoWind,                                 !- Wind Exposure
  ,                                       !- View Factor to Ground
  ,                                       !- Number of Vertices
  -3.5527136788005e-15, 4.572, 3.048,     !- X,Y,Z Vertex 1 {m}
  -3.5527136788005e-15, 4.572, 0,         !- X,Y,Z Vertex 2 {m}
  -17.2524543073497, 4.572, 0,            !- X,Y,Z Vertex 3 {m}
  -17.2524543073497, 4.572, 3.048;        !- X,Y,Z Vertex 4 {m}

OS:Surface,
  {e1716b33-2048-48b6-abc1-60433926feff}, !- Handle
  Surface 11,                             !- Name
  Wall,                                   !- Surface Type
  ,                                       !- Construction Name
  {a8f72d0d-89f3-4e27-8d21-d7f807d2c8fc}, !- Space Name
  Surface,                                !- Outside Boundary Condition
  {e3059fd3-2a99-44fe-8f45-9484811f0426}, !- Outside Boundary Condition Object
  NoSun,                                  !- Sun Exposure
  NoWind,                                 !- Wind Exposure
  ,                                       !- View Factor to Ground
  ,                                       !- Number of Vertices
  -3.90798504668055e-14, 4.61852778244065e-14, 3.048, !- X,Y,Z Vertex 1 {m}
  -3.90798504668055e-14, 4.61852778244065e-14, 0, !- X,Y,Z Vertex 2 {m}
  -3.90798504668055e-14, 4.572, 0,        !- X,Y,Z Vertex 3 {m}
  -3.90798504668055e-14, 4.572, 3.048;    !- X,Y,Z Vertex 4 {m}

OS:Surface,
  {bc0a877b-8485-4ca4-b174-97abc825072e}, !- Handle
  Surface 12,                             !- Name
  RoofCeiling,                            !- Surface Type
  ,                                       !- Construction Name
  {a8f72d0d-89f3-4e27-8d21-d7f807d2c8fc}, !- Space Name
  Outdoors,                               !- Outside Boundary Condition
  ,                                       !- Outside Boundary Condition Object
  SunExposed,                             !- Sun Exposure
  WindExposed,                            !- Wind Exposure
  ,                                       !- View Factor to Ground
  ,                                       !- Number of Vertices
  -3.5527136788005e-15, 4.572, 3.048,     !- X,Y,Z Vertex 1 {m}