
OS:Version,
  {b571cfc8-b438-4d7d-8cf8-6e5266db02f4}, !- Handle
  3.8.0;                                  !- Version Identifier

OS:Building,
  {c00077b5-09bf-4124-b8c9-5a2ec0d916b5}, !- Handle
  ComStock DOE Ref Pre-1980|LargeOffice,  !- Name
  ,                                       !- Building Sector Type
  135,                                    !- North Axis {deg}
  ,                                       !- Nominal Floor to Floor Height {m}
  ,                                       !- Space Type Name
  {03ffce9a-7765-43a7-9654-c8e8eb7b84c4}, !- Default Construction Set Name
  {1ff1baaf-6e09-45a4-b68c-607964c801f0}, !- Default Schedule Set Name
  ,                                       !- Standards Number of Stories
  ,                                       !- Standards Number of Above Ground Stories
  ,                                       !- Standards Template
  Office;                                 !- Standards Building Type

OS:Facility,
  {e679e713-b9f9-4d66-b883-971179b0e2b8}; !- Handle

OS:Site,
  {b01b81b8-d5e6-4a56-9afc-49e76655afd1}, !- Handle
  Rogers Muni Carter F_AR_USA,            !- Name
  36.37,                                  !- Latitude {deg}
  -94.1,                                  !- Longitude {deg}
  -6,                                     !- Time Zone {hr}
  412,                                    !- Elevation {m}
  City;                                   !- Terrain

OS:SimulationControl,
  {efafb8f8-80a6-4d4d-a27e-841ca1cdb3c6}, !- Handle
  Yes,                                    !- Do Zone Sizing Calculation
  Yes,                                    !- Do System Sizing Calculation
  Yes,                                    !- Do Plant Sizing Calculation
  No,                                     !- Run Simulation for Sizing Periods
  Yes,                                    !- Run Simulation for Weather File Run Periods
  ,                                       !- Loads Convergence Tolerance Value {W}
  ,                                       !- Temperature Convergence Tolerance Value {deltaC}
  ,                                       !- Solar Distribution
  ,                                       !- Maximum Number of Warmup Days
  ,                                       !- Minimum Number of Warmup Days
  No,                                     !- Do HVAC Sizing Simulation for Sizing Periods
  1;                                      !- Maximum Number of HVAC Sizing Simulation Passes

OS:Sizing:Parameters,
  {d56d5751-4caf-42f8-952a-f71e6fb924ef}, !- Handle
  1.25,                                   !- Heating Sizing Factor
  1.15;                                   !- Cooling Sizing Factor

OS:Timestep,
  {316ab077-e968-4a94-ab90-9db0e03e6cb9}, !- Handle
  4;                                      !- Number of Timesteps per Hour

OS:ShadowCalculation,
  {5c95fb47-a280-43d7-9572-8069e8d446c3}, !- Handle
  PolygonClipping,                        !- Shading Calculation Method
  ,                                       !- Shading Calculation Update Frequency Method
  20,                                     !- Shading Calculation Update Frequency
  15000,                                  !- Maximum Figures in Shadow Overlap Calculations
  ,                                       !- Polygon Clipping Algorithm
  512,                                    !- Pixel Counting Resolution
  ,                                       !- Sky Diffuse Modeling Algorithm
  No,                                     !- Output External Shading Calculation Results
  No,                                     !- Disable Self-Shading Within Shading Zone Groups
  No;                                     !- Disable Self-Shading From Shading Zone Groups to Other Zones

OS:HeatBalanceAlgorithm,
  {469e08bf-e246-40bf-9adf-f69b45b104e1}, !- Handle
  ConductionTransferFunction,             !- Algorithm
  200;                                    !- Surface Temperature Upper Limit {C}

OS:RunPeriod,
  {c825b551-ca9f-44c9-b1b3-430fe415b5a6}, !- Handle
  Run Period 1,                           !- Name
  1,                                      !- Begin Month
  1,                                      !- Begin Day of Month
  12,                                     !- End Month
  31,                                     !- End Day of Month
  ,                                       !- Use Weather File Holidays and Special Days
  ,                                       !- Use Weather File Daylight Saving Period
  ,                                       !- Apply Weekend Holiday Rule
  ,                                       !- Use Weather File Rain Indicators
  ,                                       !- Use Weather File Snow Indicators
  ;                                       !- Number of Times Runperiod to be Repeated

OS:LifeCycleCost:Parameters,
  {91382d8e-6512-4146-9e1f-374e81318ff9}, !- Handle
  ,                                       !- Analysis Type
  ,                                       !- Discounting Convention
  ,                                       !- Inflation Approach
  ,                                       !- Real Discount Rate
  ,                                       !- Nominal Discount Rate
  ,                                       !- Inflation
  ,                                       !- Base Date Month
  ,                                       !- Base Date Year
  ,                                       !- Service Date Month
  ,                                       !- Service Date Year
  ;                                       !- Length of Study Period in Years

OS:WeatherFile,
  {d661276d-1f33-481e-ae90-e8f4530afba7}, !- Handle
  Rogers Muni Carter F,                   !- City
  AR,                                     !- State Province Region
  USA,                                    !- Country
  customized weather file,                !- Data Source
  723449,                                 !- WMO Number
  36.37,                                  !- Latitude {deg}
  -94.1,                                  !- Longitude {deg}
  -6,                                     !- Time Zone {hr}
  412,                                    !- Elevation {m}
  /weather/G0500070.epw,                  !- Url
  226BE93E,                               !- Checksum
  ,                                       !- Start Date Actual Year
  Friday;                                 !- Start Day of Week

OS:AdditionalProperties,
  {6545c2a2-2638-4d23-a25d-21170a5bc162}, !- Handle
  {c00077b5-09bf-4124-b8c9-5a2ec0d916b5}, !- Object Name
  Building,                               !- Feature Name 1
  String,                                 !- Feature Data Type 1
  75241,                                  !- Feature Value 1
  cook_fuel_broiler,                      !- Feature Name 2
  String,                                 !- Feature Data Type 2
  Gas,                                    !- Feature Value 2
  cook_fuel_fryer,                        !- Feature Name 3
  String,                                 !- Feature Data Type 3
  Electric,                               !- Feature Value 3
  cook_fuel_griddle,                      !- Feature Name 4
  String,                                 !- Feature Data Type 4
  Electric,                               !- Feature Value 4
  cook_fuel_oven,                         !- Feature Name 5
  String,                                 !- Feature Data Type 5
  Electric,                               !- Feature Value 5
  cook_fuel_range,                        !- Feature Name 6
  String,                                 !- Feature Data Type 6
  Gas,                                    !- Feature Value 6
  cook_fuel_steamer,                      !- Feature Name 7
  String,                                 !- Feature Data Type 7
  Electric,                               !- Feature Value 7
  heating_fuel,                           !- Feature Name 8
  String,                                 !- Feature Data Type 8
  NaturalGas,                             !- Feature Value 8
  hvac_system_type,                       !- Feature Name 9
  String,                                 !- Feature Data Type 9
  VAV air-cooled chiller with gas boiler reheat, !- Feature Value 9
  rotation,                               !- Feature Name 10
  String,                                 !- Feature Data Type 10
  135,                                    !- Feature Value 10
  year_of_simulation,                     !- Feature Name 11
  String,                                 !- Feature Data Type 11
  2018,                                   !- Feature Value 11
  building_type,                          !- Feature Name 12
  String,                                 !- Feature Data Type 12
  large_office,                           !- Feature Value 12
  sampling_region,                        !- Feature Name 13
  String,                                 !- Feature Data Type 13
  13,                                     !- Feature Value 13
  size_bin,                               !- Feature Name 14
  String,                                 !- Feature Data Type 14
  1,                                      !- Feature Value 14
  building_area,                          !- Feature Name 15
  String,                                 !- Feature Data Type 15
  600001_1mil,                            !- Feature Value 15
  tract,                                  !- Feature Name 16
  String,                                 !- Feature Data Type 16
  G0500070021315,                         !- Feature Value 16
  year_built,                             !- Feature Name 17
  String,                                 !- Feature Data Type 17
  1920,                                   !- Feature Value 17
  number_stories,                         !- Feature Name 18
  String,                                 !- Feature Data Type 18
  6,                                      !- Feature Value 18
  state_id,                               !- Feature Name 19
  String,                                 !- Feature Data Type 19
  G050,                                   !- Feature Value 19
  county_id,                              !- Feature Name 20
  String,                                 !- Feature Data Type 20
  G0500070,                               !- Feature Value 20
  building_subtype,                       !- Feature Name 21
  String,                                 !- Feature Data Type 21
  largeoffice_datacenter,                 !- Feature Value 21
  census_region,                          !- Feature Name 22
  String,                                 !- Feature Data Type 22
  West South Central,                     !- Feature Value 22
  climate_zone,                           !- Feature Name 23
  String,                                 !- Feature Data Type 23
  4A,                                     !- Feature Value 23
  ground_thermal_conductivity,            !- Feature Name 24
  String,                                 !- Feature Data Type 24
  1.4,                                    !- Feature Value 24
  energy_code_compliance_during_original_building_construction, !- Feature Name 25
  String,                                 !- Feature Data Type 25
  comply,                                 !- Feature Value 25
  ownership_status,                       !- Feature Name 26
  String,                                 !- Feature Data Type 26
  owner_occupied,                         !- Feature Value 26
  party_responsible_for_operation,        !- Feature Name 27
  String,                                 !- Feature Data Type 27
  building_owner,                         !- Feature Value 27
  purchase_input_responsibility,          !- Feature Name 28
  String,                                 !- Feature Data Type 28
  building_owner,                         !- Feature Value 28
  year_bin_of_original_building_construction, !- Feature Name 29
  String,                                 !- Feature Data Type 29
  pre_1978,                               !- Feature Value 29
  energy_code_in_force_during_original_building_construction, !- Feature Name 30
  String,                                 !- Feature Data Type 30
  ComStock DOE Ref Pre-1980,              !- Feature Value 30
  window_wall_ratio,                      !- Feature Name 31
  String,                                 !- Feature Data Type 31
  76_100pct,                              !- Feature Value 31
  energy_code_followed_during_original_building_construction, !- Feature Name 32
  String,                                 !- Feature Data Type 32
  ComStock DOE Ref Pre-1980,              !- Feature Value 32
  building_shape,                         !- Feature Name 33
  String,                                 !- Feature Data Type 33
  missing,                                !- Feature Value 33
  service_water_heating_fuel,             !- Feature Name 34
  String,                                 !- Feature Data Type 34
  Electricity,                            !- Feature Value 34
  wall_construction_type,                 !- Feature Name 35
  String,                                 !- Feature Data Type 35
  steel_framed,                           !- Feature Value 35
  weekday_start_time,                     !- Feature Name 36
  String,                                 !- Feature Data Type 36
  4.0,                                    !- Feature Value 36
  weekend_start_time,                     !- Feature Name 37
  String,                                 !- Feature Data Type 37
  8.25,                                   !- Feature Value 37
  airtightness,                           !- Feature Name 38
  String,                                 !- Feature Data Type 38
  10.0,                                   !- Feature Value 38
  aspect_ratio,                           !- Feature Name 39
  String,                                 !- Feature Data Type 39
  3,                                      !- Feature Value 39
  weekday_duration,                       !- Feature Name 40
  String,                                 !- Feature Data Type 40
  12.75,                                  !- Feature Value 40
  weekend_duration,                       !- Feature Name 41
  String,                                 !- Feature Data Type 41
  8.5,                                    !- Feature Value 41
  energy_code_compliance_hvac,            !- Feature Name 42
  String,                                 !- Feature Data Type 42
  comply,                                 !- Feature Value 42
  fault_economizer_damper_fully_closed,   !- Feature Name 43
  String,                                 !- Feature Data Type 43
  Fault may,                              !- Feature Value 43
  hvac_night_variability,                 !- Feature Name 44
  String,                                 !- Feature Data Type 44
  night_fancycle_vent,                    !- Feature Value 44
  hvac_tst_clg_delta_f,                   !- Feature Name 45
  String,                                 !- Feature Data Type 45
  8,                                      !- Feature Value 45
  hvac_tst_clg_sp_f,                      !- Feature Name 46
  String,                                 !- Feature Data Type 46
  73,                                     !- Feature Value 46
  hvac_tst_htg_delta_f,                   !- Feature Name 47
  String,                                 !- Feature Data Type 47
  0,                                      !- Feature Value 47
  hvac_tst_htg_sp_f,                      !- Feature Name 48
  String,                                 !- Feature Data Type 48
  64,                                     !- Feature Value 48
  year_bin_of_last_hvac_replacement,      !- Feature Name 49
  String,                                 !- Feature Data Type 49
  2003,                                   !- Feature Value 49
  energy_code_in_force_during_last_hvac_replacement, !- Feature Name 50
  String,                                 !- Feature Data Type 50
  ComStock DOE Ref 1980-2004,             !- Feature Value 50
  energy_code_followed_during_last_hvac_replacement, !- Feature Name 51
  String,                                 !- Feature Data Type 51
  ComStock DOE Ref 1980-2004,             !- Feature Value 51
  fault_economizer_db_limit,              !- Feature Name 52
  String,                                 !- Feature Data Type 52
  No fault,                               !- Feature Value 52
  cook_dining_type,                       !- Feature Name 53
  String,                                 !- Feature Data Type 53
  None,                                   !- Feature Value 53
  cook_fryers_counts,                     !- Feature Name 54
  String,                                 !- Feature Data Type 54
  0.0,                                    !- Feature Value 54
  cook_griddles_counts,                   !- Feature Name 55
  String,                                 !- Feature Data Type 55
  0.0,                                    !- Feature Value 55
  cook_ovens_counts,                      !- Feature Name 56
  String,                                 !- Feature Data Type 56
  0.0,                                    !- Feature Value 56
  cook_ranges_counts,                     !- Feature Name 57
  String,                                 !- Feature Data Type 57
  0.0,                                    !- Feature Value 57
  cook_steamers_counts,                   !- Feature Name 58
  String,                                 !- Feature Data Type 58
  0.0,                                    !- Feature Value 58
  cook_broiler_counts,                    !- Feature Name 59
  String,                                 !- Feature Data Type 59
  0.0,                                    !- Feature Value 59
  energy_code_compliance_service_water_heating, !- Feature Name 60
  String,                                 !- Feature Data Type 60
  comply,                                 !- Feature Value 60
  energy_code_compliance_interior_equipment, !- Feature Name 61
  String,                                 !- Feature Data Type 61
  comply,                                 !- Feature Value 61
  plugload_sch_base_peak_ratio_type,      !- Feature Name 62
  String,                                 !- Feature Data Type 62
  office_plugload_bpr_no_strict_schedule_towards_off, !- Feature Value 62
  plugload_sch_weekday_base_peak_ratio,   !- Feature Name 63
  String,                                 !- Feature Data Type 63
  0.2,                                    !- Feature Value 63
  plugload_sch_weekend_base_peak_ratio,   !- Feature Name 64
  String,                                 !- Feature Data Type 64
  0.75,                                   !- Feature Value 64
  year_bin_of_last_interior_equipment_replacement, !- Feature Name 65
  String,                                 !- Feature Data Type 65
  2014,                                   !- Feature Value 65
  year_bin_of_last_service_water_heating_replacement, !- Feature Name 66
  String,                                 !- Feature Data Type 66
  2017,                                   !- Feature Value 66
  energy_code_in_force_during_last_interior_equipment_replacement, !- Feature Name 67
  String,                                 !- Feature Data Type 67
  ComStock 90.1-2007,                     !- Feature Value 67
  energy_code_in_force_during_last_service_water_heating_replacement, !- Feature Name 68
  String,                                 !- Feature Data Type 68
  ComStock 90.1-2007,                     !- Feature Value 68
  energy_code_followed_during_last_interior_equipment_replacement, !- Feature Name 69
  String,                                 !- Feature Data Type 69
  ComStock 90.1-2007,                     !- Feature Value 69
  energy_code_followed_during_last_service_water_heating_replacement, !- Feature Name 70
  String,                                 !- Feature Data Type 70
  ComStock 90.1-2007,                     !- Feature Value 70
  building_size_lighting_tech,            !- Feature Name 71
  String,                                 !- Feature Data Type 71
  large,                                  !- Feature Value 71
  energy_code_compliance_exterior_lighting, !- Feature Name 72
  String,                                 !- Feature Data Type 72
  comply,                                 !- Feature Value 72
  energy_code_compliance_interior_lighting, !- Feature Name 73
  String,                                 !- Feature Data Type 73
  lead,                                   !- Feature Value 73
  ltg_sch_base_peak_ratio_type,           !- Feature Name 74
  String,                                 !- Feature Data Type 74
  office_ltg_bpr_almost_off,              !- Feature Value 74
  ltg_sch_weekday_base_peak_ratio,        !- Feature Name 75
  String,                                 !- Feature Data Type 75
  0.65,                                   !- Feature Value 75
  ltg_sch_weekend_base_peak_ratio,        !- Feature Name 76
  String,                                 !- Feature Data Type 76
  0.9,                                    !- Feature Value 76
  year_bin_of_last_exterior_lighting_replacement, !- Feature Name 77
  String,                                 !- Feature Data Type 77
  2018,                                   !- Feature Value 77
  year_bin_of_last_interior_lighting_replacement, !- Feature Name 78
  String,                                 !- Feature Data Type 78
  2016,                                   !- Feature Value 78
  energy_code_in_force_during_last_exterior_lighting_replacement, !- Feature Name 79
  String,                                 !- Feature Data Type 79
  ComStock 90.1-2007,                     !- Feature Value 79
  energy_code_in_force_during_last_interior_lighting_replacement, !- Feature Name 80
  String,                                 !- Feature Data Type 80
  ComStock 90.1-2007,                     !- Feature Value 80
  lighting_generation,                    !- Feature Name 81
  String,                                 !- Feature Data Type 81
  gen4_led,                               !- Feature Value 81
  energy_code_followed_during_last_exterior_lighting_replacement, !- Feature Name 82
  String,                                 !- Feature Data Type 82
  ComStock 90.1-2007,                     !- Feature Value 82
  energy_code_followed_during_last_interior_lighting_replacement, !- Feature Name 83
  String,                                 !- Feature Data Type 83
  ComStock 90.1-2019,                     !- Feature Value 83
  energy_code_compliance_roof,            !- Feature Name 84
  String,                                 !- Feature Data Type 84
  comply,                                 !- Feature Value 84
  energy_code_compliance_walls,           !- Feature Name 85
  String,                                 !- Feature Data Type 85
  comply,                                 !- Feature Value 85
  energy_code_compliance_windows,         !- Feature Name 86
  String,                                 !- Feature Data Type 86
  comply,                                 !- Feature Value 86
  year_bin_of_last_roof_replacement,      !- Feature Name 87
  String,                                 !- Feature Data Type 87
  pre_1978,                               !- Feature Value 87
  year_bin_of_last_walls_replacement,     !- Feature Name 88
  String,                                 !- Feature Data Type 88
  pre_1978,                               !- Feature Value 88
  year_bin_of_last_windows_replacement,   !- Feature Name 89
  String,                                 !- Feature Data Type 89
  1979,                                   !- Feature Value 89
  energy_code_in_force_during_last_roof_replacement, !- Feature Name 90
  String,                                 !- Feature Data Type 90
  ComStock DOE Ref Pre-1980,              !- Feature Value 90
  energy_code_in_force_during_last_walls_replacement, !- Feature Name 91
  String,                                 !- Feature Data Type 91
  ComStock DOE Ref Pre-1980,              !- Feature Value 91
  energy_code_in_force_during_last_windows_replacement, !- Feature Name 92
  String,                                 !- Feature Data Type 92
  ComStock DOE Ref Pre-1980,              !- Feature Value 92
  energy_code_followed_during_last_roof_replacement, !- Feature Name 93
  String,                                 !- Feature Data Type 93
  ComStock DOE Ref Pre-1980,              !- Feature Value 93
  energy_code_followed_during_last_walls_replacement, !- Feature Name 94
  String,                                 !- Feature Data Type 94
  ComStock DOE Ref Pre-1980,              !- Feature Value 94
  energy_code_followed_during_last_windows_replacement, !- Feature Name 95
  String,                                 !- Feature Data Type 95
  ComStock DOE Ref Pre-1980,              !- Feature Value 95
  baseline_hvac_sizing,                   !- Feature Name 96
  String,                                 !- Feature Data Type 96
  hardsize,                               !- Feature Value 96
  nhgis_tract_gisjoin,                    !- Feature Name 97
  String,                                 !- Feature Data Type 97
  G0500070021310,                         !- Feature Value 97
  nhgis_county_gisjoin,                   !- Feature Name 98
  String,                                 !- Feature Data Type 98
  G0500070,                               !- Feature Value 98
  nhgis_puma_gisjoin,                     !- Feature Name 99
  String,                                 !- Feature Data Type 99
  G05000100,                              !- Feature Value 99
  state_name,                             !- Feature Name 100
  String,                                 !- Feature Data Type 100
  Arkansas,                               !- Feature Value 100
  state_abbreviation,                     !- Feature Name 101
  String,                                 !- Feature Data Type 101
  AR,                                     !- Feature Value 101
  census_division_name,                   !- Feature Name 102
  String,                                 !- Feature Data Type 102
  West South Central,                     !- Feature Value 102
  census_region_name,                     !- Feature Name 103
  String,                                 !- Feature Data Type 103
  South,                                  !- Feature Value 103
  census_division_name_recs,              !- Feature Name 104
  String,                                 !- Feature Data Type 104
  West South Central,                     !- Feature Value 104
  american_housing_survey_region,         !- Feature Name 105
  String,                                 !- Feature Data Type 105
  Non-CBSA West South Central,            !- Feature Value 105
  weather_file_2018,                      !- Feature Name 106
  String,                                 !- Feature Data Type 106
  USA_AR_Rogers.Muni.Carter.F.723449_2018.epw, !- Feature Value 106
  weather_file_TMY3,                      !- Feature Name 107
  String,                                 !- Feature Data Type 107
  Bentonville_Awos,                       !- Feature Value 107
  climate_zone_building_america,          !- Feature Name 108
  String,                                 !- Feature Data Type 108
  Mixed-Humid,                            !- Feature Value 108
  climate_zone_ashrae_2006,               !- Feature Name 109
  String,                                 !- Feature Data Type 109
  4A,                                     !- Feature Value 109
  iso_region,                             !- Feature Name 110
  String,                                 !- Feature Data Type 110
  SPP,                                    !- Feature Value 110
  reeds_balancing_area,                   !- Feature Name 111
  String,                                 !- Feature Data Type 111
  56.0,                                   !- Feature Value 111
  resstock_county_id,                     !- Feature Name 112
  String,                                 !- Feature Data Type 112
  AR&#44 Benton County,                   !- Feature Value 112
  resstock_puma_id,                       !- Feature Name 113
  String,                                 !- Feature Data Type 113
  AR&#44 00100,                           !- Feature Value 113
  resstock_custom_region,                 !- Feature Name 114
  String,                                 !- Feature Data Type 114
  CR09,                                   !- Feature Value 114
  cambium_grid_region,                    !- Feature Name 115
  String,                                 !- Feature Data Type 115
  SPSOc,                                  !- Feature Value 115
  cluster_id,                             !- Feature Name 116
  String,                                 !- Feature Data Type 116
  60,                                     !- Feature Value 116
  cluster_name,                           !- Feature Name 117
  String,                                 !- Feature Data Type 117
  the Greater Columbia-Fayetteville-Jefferson City-Joplin-Springfield-Wichita Areas, !- Feature Value 117
  grid_region,                            !- Feature Name 118
  String,                                 !- Feature Data Type 118
  SPSOc,                                  !- Feature Value 118
  Soil Conductivity,                      !- Feature Name 119
  Double,                                 !- Feature Data Type 119
  1.3999999999999999,                     !- Feature Value 119
  Undisturbed Ground Temperature,         !- Feature Name 120
  Double,                                 !- Feature Data Type 120
  14.699999999999999,                     !- Feature Value 120
  wall_as_constructed_template,           !- Feature Name 121
  String,                                 !- Feature Data Type 121
  ComStock DOE Ref Pre-1980,              !- Feature Value 121
  wall_template,                          !- Feature Name 122