
OS:Version,
  {6a4e9612-7f3d-49bc-846d-92f91bf5f823}, !- Handle
  3.8.0;                                  !- Version Identifier

OS:Building,
  {bb0cfc3c-5ee6-4d9b-9092-3c13a739a484}, !- Handle
  ComStock DOE Ref Pre-1980|PrimarySchool, !- Name
  ,                                       !- Building Sector Type
  135,                                    !- North Axis {deg}
  ,                                       !- Nominal Floor to Floor Height {m}
  ,                                       !- Space Type Name
  {3da26ec8-ec2c-4ab4-8296-8e89f4159bd2}, !- Default Construction Set Name
  {aa3f5fa7-e9d6-4c82-9bd0-c8adef3684b9}, !- Default Schedule Set Name
  ,                                       !- Standards Number of Stories
  ,                                       !- Standards Number of Above Ground Stories
  ,                                       !- Standards Template
  PrimarySchool;                          !- Standards Building Type

OS:Facility,
  {48d8dd65-78b2-438f-8e47-74678764d890}; !- Handle

OS:Site,
  {c5d58310-b9ff-4bde-93a7-c62f399020c8}, !- Handle
  Doylestown_PA_USA,                      !- Name
  40.33,                                  !- Latitude {deg}
  -75.12,                                 !- Longitude {deg}
  -5,                                     !- Time Zone {hr}
  117,                                    !- Elevation {m}
  City;                                   !- Terrain

OS:SimulationControl,
  {0c73101e-6321-418a-8fa8-aa7b7b453a90}, !- Handle
  Yes,                                    !- Do Zone Sizing Calculation
  Yes,                                    !- Do System Sizing Calculation
  Yes,                                    !- Do Plant Sizing Calculation
  No,                                     !- Run Simulation for Sizing Periods
  Yes,                                    !- Run Simulation for Weather File Run Periods
  ,                                       !- Loads Convergence Tolerance Value {W}
  ,                                       !- Temperature Convergence Tolerance Value {deltaC}
  ,                                       !- Solar Distribution
  ,                                       !- Maximum Number of Warmup Days
  ,                                       !- Minimum Number of Warmup Days
  No,                                     !- Do HVAC Sizing Simulation for Sizing Periods
  1;                                      !- Maximum Number of HVAC Sizing Simulation Passes

OS:Sizing:Parameters,
  {7095c552-b341-422e-b972-a75e4d266228}, !- Handle
  1.25,                                   !- Heating Sizing Factor
  1.15;                                   !- Cooling Sizing Factor

OS:Timestep,
  {124a8fd1-dafa-493c-a403-cb150bafe588}, !- Handle
  4;                                      !- Number of Timesteps per Hour

OS:ShadowCalculation,
  {7d0a33ee-2154-4533-a403-f87f4ce5a849}, !- Handle
  PolygonClipping,                        !- Shading Calculation Method
  ,                                       !- Shading Calculation Update Frequency Method
  20,                                     !- Shading Calculation Update Frequency
  15000,                                  !- Maximum Figures in Shadow Overlap Calculations
  ,                                       !- Polygon Clipping Algorithm
  512,                                    !- Pixel Counting Resolution
  ,                                       !- Sky Diffuse Modeling Algorithm
  No,                                     !- Output External Shading Calculation Results
  No,                                     !- Disable Self-Shading Within Shading Zone Groups
  No;                                     !- Disable Self-Shading From Shading Zone Groups to Other Zones

OS:HeatBalanceAlgorithm,
  {ce3ac29e-6b85-4d73-a405-89c80dc3fb95}, !- Handle
  ConductionTransferFunction,             !- Algorithm
  200;                                    !- Surface Temperature Upper Limit {C}

OS:RunPeriod,
  {b8c6d9c4-7c73-42b9-90f5-0b2261b9ded0}, !- Handle
  Run Period 1,                           !- Name
  1,                                      !- Begin Month
  1,                                      !- Begin Day of Month
  12,                                     !- End Month
  31,                                     !- End Day of Month
  ,                                       !- Use Weather File Holidays and Special Days
  ,                                       !- Use Weather File Daylight Saving Period
  ,                                       !- Apply Weekend Holiday Rule
  ,                                       !- Use Weather File Rain Indicators
  ,                                       !- Use Weather File Snow Indicators
  ;                                       !- Number of Times Runperiod to be Repeated

OS:LifeCycleCost:Parameters,
  {281c1c88-c7a8-48a3-9255-0f24f8b267bd}, !- Handle
  ,                                       !- Analysis Type
  ,                                       !- Discounting Convention
  ,                                       !- Inflation Approach
  ,                                       !- Real Discount Rate
  ,                                       !- Nominal Discount Rate
  ,                                       !- Inflation
  ,                                       !- Base Date Month
  ,                                       !- Base Date Year
  ,                                       !- Service Date Month
  ,                                       !- Service Date Year
  ;                                       !- Length of Study Period in Years

OS:WeatherFile,
  {267b5294-e74c-4a34-ada4-76ad2edc8df0}, !- Handle
  Doylestown,                             !- City
  PA,                                     !- State Province Region
  USA,                                    !- Country
  customized weather file,                !- Data Source
  725113,                                 !- WMO Number
  40.33,                                  !- Latitude {deg}
  -75.12,                                 !- Longitude {deg}
  -5,                                     !- Time Zone {hr}
  117,                                    !- Elevation {m}
  /weather/G4200170.epw,                  !- Url
  226BE93E,                               !- Checksum
  ,                                       !- Start Date Actual Year
  Friday;                                 !- Start Day of Week

OS:AdditionalProperties,
  {132f35c9-ddef-4c57-923f-71dad31ef78d}, !- Handle
  {bb0cfc3c-5ee6-4d9b-9092-3c13a739a484}, !- Object Name
  Building,                               !- Feature Name 1
  String,                                 !- Feature Data Type 1
  35857,                                  !- Feature Value 1
  energy_code_compliance_roof,            !- Feature Name 2
  String,                                 !- Feature Data Type 2
  comply,                                 !- Feature Value 2
  energy_code_compliance_walls,           !- Feature Name 3
  String,                                 !- Feature Data Type 3
  comply,                                 !- Feature Value 3
  energy_code_compliance_windows,         !- Feature Name 4
  String,                                 !- Feature Data Type 4
  comply,                                 !- Feature Value 4
  energy_code_followed_during_last_roof_replacement, !- Feature Name 5
  String,                                 !- Feature Data Type 5
  ComStock DOE Ref Pre-1980,              !- Feature Value 5
  energy_code_followed_during_last_walls_replacement, !- Feature Name 6
  String,                                 !- Feature Data Type 6
  ComStock DOE Ref Pre-1980,              !- Feature Value 6
  energy_code_followed_during_last_windows_replacement, !- Feature Name 7
  String,                                 !- Feature Data Type 7
  ComStock DOE Ref Pre-1980,              !- Feature Value 7
  energy_code_in_force_during_last_roof_replacement, !- Feature Name 8
  String,                                 !- Feature Data Type 8
  ComStock DOE Ref Pre-1980,              !- Feature Value 8
  energy_code_in_force_during_last_walls_replacement, !- Feature Name 9
  String,                                 !- Feature Data Type 9
  ComStock DOE Ref Pre-1980,              !- Feature Value 9
  energy_code_in_force_during_last_windows_replacement, !- Feature Name 10
  String,                                 !- Feature Data Type 10
  ComStock DOE Ref Pre-1980,              !- Feature Value 10
  year_bin_of_last_roof_replacement,      !- Feature Name 11
  String,                                 !- Feature Data Type 11
  pre_1978,                               !- Feature Value 11
  year_bin_of_last_walls_replacement,     !- Feature Name 12
  String,                                 !- Feature Data Type 12
  pre_1978,                               !- Feature Value 12
  year_bin_of_last_windows_replacement,   !- Feature Name 13
  String,                                 !- Feature Data Type 13
  pre_1978,                               !- Feature Value 13
  building_size_lighting_tech,            !- Feature Name 14
  String,                                 !- Feature Data Type 14
  small,                                  !- Feature Value 14
  energy_code_compliance_exterior_lighting, !- Feature Name 15
  String,                                 !- Feature Data Type 15
  comply,                                 !- Feature Value 15
  energy_code_compliance_interior_lighting, !- Feature Name 16
  String,                                 !- Feature Data Type 16
  lead,                                   !- Feature Value 16
  energy_code_followed_during_last_exterior_lighting_replacement, !- Feature Name 17
  String,                                 !- Feature Data Type 17
  ComStock 90.1-2004,                     !- Feature Value 17
  energy_code_followed_during_last_interior_lighting_replacement, !- Feature Name 18
  String,                                 !- Feature Data Type 18
  ComStock 90.1-2019,                     !- Feature Value 18
  energy_code_in_force_during_last_exterior_lighting_replacement, !- Feature Name 19
  String,                                 !- Feature Data Type 19
  ComStock 90.1-2004,                     !- Feature Value 19
  energy_code_in_force_during_last_interior_lighting_replacement, !- Feature Name 20
  String,                                 !- Feature Data Type 20
  ComStock 90.1-2007,                     !- Feature Value 20
  lighting_generation,                    !- Feature Name 21
  String,                                 !- Feature Data Type 21
  gen2_t8_halogen,                        !- Feature Value 21
  ltg_sch_base_peak_ratio_type,           !- Feature Name 22
  String,                                 !- Feature Data Type 22
  education_school_ltg_bpr_some_off_some_on, !- Feature Value 22
  ltg_sch_weekday_base_peak_ratio,        !- Feature Name 23
  String,                                 !- Feature Data Type 23
  0.0,                                    !- Feature Value 23
  ltg_sch_weekend_base_peak_ratio,        !- Feature Name 24
  String,                                 !- Feature Data Type 24
  0.6,                                    !- Feature Value 24
  year_bin_of_last_exterior_lighting_replacement, !- Feature Name 25
  String,                                 !- Feature Data Type 25
  2009,                                   !- Feature Value 25
  year_bin_of_last_interior_lighting_replacement, !- Feature Name 26
  String,                                 !- Feature Data Type 26
  2013,                                   !- Feature Value 26
  energy_code_compliance_service_water_heating, !- Feature Name 27
  String,                                 !- Feature Data Type 27
  comply,                                 !- Feature Value 27
  energy_code_compliance_interior_equipment, !- Feature Name 28
  String,                                 !- Feature Data Type 28
  comply,                                 !- Feature Value 28
  energy_code_followed_during_last_interior_equipment_replacement, !- Feature Name 29
  String,                                 !- Feature Data Type 29
  ComStock DOE Ref 1980-2004,             !- Feature Value 29
  energy_code_followed_during_last_service_water_heating_replacement, !- Feature Name 30
  String,                                 !- Feature Data Type 30
  ComStock 90.1-2007,                     !- Feature Value 30
  energy_code_in_force_during_last_interior_equipment_replacement, !- Feature Name 31
  String,                                 !- Feature Data Type 31
  ComStock DOE Ref 1980-2004,             !- Feature Value 31
  energy_code_in_force_during_last_service_water_heating_replacement, !- Feature Name 32
  String,                                 !- Feature Data Type 32
  ComStock 90.1-2007,                     !- Feature Value 32
  plugload_sch_base_peak_ratio_type,      !- Feature Name 33
  String,                                 !- Feature Data Type 33
  education_school_plugload_bpr_some_off_some_on, !- Feature Value 33
  plugload_sch_weekday_base_peak_ratio,   !- Feature Name 34
  String,                                 !- Feature Data Type 34
  0.95,                                   !- Feature Value 34
  plugload_sch_weekend_base_peak_ratio,   !- Feature Name 35
  String,                                 !- Feature Data Type 35
  0.85,                                   !- Feature Value 35
  year_bin_of_last_interior_equipment_replacement, !- Feature Name 36
  String,                                 !- Feature Data Type 36
  2002,                                   !- Feature Value 36
  year_bin_of_last_service_water_heating_replacement, !- Feature Name 37
  String,                                 !- Feature Data Type 37
  2012,                                   !- Feature Value 37
  cook_broiler_counts,                    !- Feature Name 38
  String,                                 !- Feature Data Type 38
  0.0,                                    !- Feature Value 38
  cook_dining_type,                       !- Feature Name 39
  String,                                 !- Feature Data Type 39
  High School,                            !- Feature Value 39
  cook_fryers_counts,                     !- Feature Name 40
  String,                                 !- Feature Data Type 40
  0.0,                                    !- Feature Value 40
  cook_fuel_broiler,                      !- Feature Name 41
  String,                                 !- Feature Data Type 41
  Gas,                                    !- Feature Value 41
  cook_fuel_fryer,                        !- Feature Name 42
  String,                                 !- Feature Data Type 42
  Gas,                                    !- Feature Value 42
  cook_fuel_griddle,                      !- Feature Name 43
  String,                                 !- Feature Data Type 43
  Gas,                                    !- Feature Value 43
  cook_fuel_oven,                         !- Feature Name 44
  String,                                 !- Feature Data Type 44
  Gas,                                    !- Feature Value 44
  cook_fuel_range,                        !- Feature Name 45
  String,                                 !- Feature Data Type 45
  Gas,                                    !- Feature Value 45
  cook_fuel_steamer,                      !- Feature Name 46
  String,                                 !- Feature Data Type 46
  Gas,                                    !- Feature Value 46
  cook_griddles_counts,                   !- Feature Name 47
  String,                                 !- Feature Data Type 47
  0.0,                                    !- Feature Value 47
  cook_ovens_counts,                      !- Feature Name 48
  String,                                 !- Feature Data Type 48
  0.0,                                    !- Feature Value 48
  cook_ranges_counts,                     !- Feature Name 49
  String,                                 !- Feature Data Type 49
  0.0,                                    !- Feature Value 49
  cook_steamers_counts,                   !- Feature Name 50
  String,                                 !- Feature Data Type 50
  0.0,                                    !- Feature Value 50
  energy_code_compliance_hvac,            !- Feature Name 51
  String,                                 !- Feature Data Type 51
  comply,                                 !- Feature Value 51
  energy_code_followed_during_last_hvac_replacement, !- Feature Name 52
  String,                                 !- Feature Data Type 52
  ComStock DOE Ref 1980-2004,             !- Feature Value 52
  energy_code_in_force_during_last_hvac_replacement, !- Feature Name 53
  String,                                 !- Feature Data Type 53
  ComStock DOE Ref 1980-2004,             !- Feature Value 53
  fault_economizer_damper_fully_closed,   !- Feature Name 54
  String,                                 !- Feature Data Type 54
  Fault mar,                              !- Feature Value 54
  fault_economizer_db_limit,              !- Feature Name 55
  String,                                 !- Feature Data Type 55
  Fault,                                  !- Feature Value 55
  hvac_night_variability,                 !- Feature Name 56
  String,                                 !- Feature Data Type 56
  default_nochange,                       !- Feature Value 56
  hvac_tst_clg_delta_f,                   !- Feature Name 57
  String,                                 !- Feature Data Type 57
  7,                                      !- Feature Value 57
  hvac_tst_clg_sp_f,                      !- Feature Name 58
  String,                                 !- Feature Data Type 58
  71,                                     !- Feature Value 58
  hvac_tst_htg_delta_f,                   !- Feature Name 59
  String,                                 !- Feature Data Type 59
  6,                                      !- Feature Value 59
  hvac_tst_htg_sp_f,                      !- Feature Name 60
  String,                                 !- Feature Data Type 60
  68,                                     !- Feature Value 60
  year_bin_of_last_hvac_replacement,      !- Feature Name 61
  String,                                 !- Feature Data Type 61
  1992,                                   !- Feature Value 61
  airtightness,                           !- Feature Name 62
  String,                                 !- Feature Data Type 62
  10.0,                                   !- Feature Value 62
  aspect_ratio,                           !- Feature Name 63
  String,                                 !- Feature Data Type 63
  2,                                      !- Feature Value 63
  building_shape,                         !- Feature Name 64
  String,                                 !- Feature Data Type 64
  2,                                      !- Feature Value 64
  heating_fuel,                           !- Feature Name 65
  String,                                 !- Feature Data Type 65
  NaturalGas,                             !- Feature Value 65
  hvac_system_type,                       !- Feature Name 66
  String,                                 !- Feature Data Type 66
  DOAS with fan coil air-cooled chiller with boiler, !- Feature Value 66
  rotation,                               !- Feature Name 67
  String,                                 !- Feature Data Type 67
  135,                                    !- Feature Value 67
  service_water_heating_fuel,             !- Feature Name 68
  String,                                 !- Feature Data Type 68
  NaturalGas,                             !- Feature Value 68
  wall_construction_type,                 !- Feature Name 69
  String,                                 !- Feature Data Type 69
  mass,                                   !- Feature Value 69
  weekday_duration,                       !- Feature Name 70
  String,                                 !- Feature Data Type 70
  6.5,                                    !- Feature Value 70
  weekday_start_time,                     !- Feature Name 71
  String,                                 !- Feature Data Type 71
  10.5,                                   !- Feature Value 71
  weekend_duration,                       !- Feature Name 72
  String,                                 !- Feature Data Type 72
  11.0,                                   !- Feature Value 72
  weekend_start_time,                     !- Feature Name 73
  String,                                 !- Feature Data Type 73
  12.0,                                   !- Feature Value 73
  energy_code_compliance_during_original_building_construction, !- Feature Name 74
  String,                                 !- Feature Data Type 74
  comply,                                 !- Feature Value 74
  energy_code_followed_during_original_building_construction, !- Feature Name 75
  String,                                 !- Feature Data Type 75
  ComStock DOE Ref Pre-1980,              !- Feature Value 75
  energy_code_in_force_during_original_building_construction, !- Feature Name 76
  String,                                 !- Feature Data Type 76
  ComStock DOE Ref Pre-1980,              !- Feature Value 76
  ownership_status,                       !- Feature Name 77
  String,                                 !- Feature Data Type 77
  local,                                  !- Feature Value 77
  party_responsible_for_operation,        !- Feature Name 78
  String,                                 !- Feature Data Type 78
  building_owner,                         !- Feature Value 78
  purchase_input_responsibility,          !- Feature Name 79
  String,                                 !- Feature Data Type 79
  building_owner,                         !- Feature Value 79
  window_wall_ratio,                      !- Feature Name 80
  String,                                 !- Feature Data Type 80
  _1pct,                                  !- Feature Value 80
  year_bin_of_original_building_construction, !- Feature Name 81
  String,                                 !- Feature Data Type 81
  pre_1978,                               !- Feature Value 81
  building_subtype,                       !- Feature Name 82
  String,                                 !- Feature Data Type 82
  NA,                                     !- Feature Value 82
  census_region,                          !- Feature Name 83
  String,                                 !- Feature Data Type 83
  Mid-Atlantic,                           !- Feature Value 83
  climate_zone,                           !- Feature Name 84
  String,                                 !- Feature Data Type 84
  4A,                                     !- Feature Value 84
  ground_thermal_conductivity,            !- Feature Name 85
  String,                                 !- Feature Data Type 85
  2.0,                                    !- Feature Value 85
  year_of_simulation,                     !- Feature Name 86
  String,                                 !- Feature Data Type 86
  2018,                                   !- Feature Value 86
  building_area,                          !- Feature Name 87
  String,                                 !- Feature Data Type 87
  _1000,                                  !- Feature Value 87
  building_type,                          !- Feature Name 88
  String,                                 !- Feature Data Type 88
  primary_school,                         !- Feature Value 88
  sampling_region,                        !- Feature Name 89
  String,                                 !- Feature Data Type 89
  29,                                     !- Feature Value 89
  size_bin,                               !- Feature Name 90
  String,                                 !- Feature Data Type 90
  0,                                      !- Feature Value 90
  tract,                                  !- Feature Name 91
  String,                                 !- Feature Data Type 91
  G4200170101100,                         !- Feature Value 91
  year_built,                             !- Feature Name 92
  String,                                 !- Feature Data Type 92
  1961,                                   !- Feature Value 92
  number_stories,                         !- Feature Name 93
  String,                                 !- Feature Data Type 93
  1,                                      !- Feature Value 93
  state_id,                               !- Feature Name 94
  String,                                 !- Feature Data Type 94
  G420,                                   !- Feature Value 94
  county_id,                              !- Feature Name 95
  String,                                 !- Feature Data Type 95
  G4200170,                               !- Feature Value 95
  baseline_hvac_sizing,                   !- Feature Name 96
  String,                                 !- Feature Data Type 96
  hardsize,                               !- Feature Value 96
  baseline_window_type,                   !- Feature Name 97
  String,                                 !- Feature Data Type 97
  Single - No LowE - Tinted/Reflective - Aluminum, !- Feature Value 97
  nhgis_tract_gisjoin,                    !- Feature Name 98
  String,                                 !- Feature Data Type 98
  G4200170101100,                         !- Feature Value 98
  nhgis_county_gisjoin,                   !- Feature Name 99
  String,                                 !- Feature Data Type 99
  G4200170,                               !- Feature Value 99
  nhgis_puma_gisjoin,                     !- Feature Name 100
  String,                                 !- Feature Data Type 100
  G42003004,                              !- Feature Value 100
  state_name,                             !- Feature Name 101
  String,                                 !- Feature Data Type 101
  Pennsylvania,                           !- Feature Value 101
  state_abbreviation,                     !- Feature Name 102
  String,                                 !- Feature Data Type 102
  PA,                                     !- Feature Value 102
  census_division_name,                   !- Feature Name 103
  String,                                 !- Feature Data Type 103
  Middle Atlantic,                        !- Feature Value 103
  census_region_name,                     !- Feature Name 104
  String,                                 !- Feature Data Type 104
  Northeast,                              !- Feature Value 104
  census_division_name_recs,              !- Feature Name 105
  String,                                 !- Feature Data Type 105
  Middle Atlantic,                        !- Feature Value 105
  american_housing_survey_region,         !- Feature Name 106
  String,                                 !- Feature Data Type 106
  CBSA Philadelphia-Camden-Wilmington&#44 PA-NJ-DE-MD, !- Feature Value 106
  weather_file_2018,                      !- Feature Name 107
  String,                                 !- Feature Data Type 107
  USA_PA_Doylestown.725113_2018.epw,      !- Feature Value 107
  weather_file_TMY3,                      !- Feature Name 108
  String,                                 !- Feature Data Type 108
  Willow_Grove_Nas,                       !- Feature Value 108
  climate_zone_building_america,          !- Feature Name 109
  String,                                 !- Feature Data Type 109
  Mixed-Humid,                            !- Feature Value 109
  climate_zone_ashrae_2006,               !- Feature Name 110
  String,                                 !- Feature Data Type 110
  4A,                                     !- Feature Value 110
  iso_region,                             !- Feature Name 111
  String,                                 !- Feature Data Type 111
  PJM,                                    !- Feature Value 111
  reeds_balancing_area,                   !- Feature Name 112
  String,                                 !- Feature Data Type 112
  122,                                    !- Feature Value 112
  resstock_county_id,                     !- Feature Name 113
  String,                                 !- Feature Data Type 113
  PA&#44 Bucks County,                    !- Feature Value 113
  resstock_puma_id,                       !- Feature Name 114
  String,                                 !- Feature Data Type 114
  PA&#44 03004,                           !- Feature Value 114
  resstock_custom_region,                 !- Feature Name 115
  String,                                 !- Feature Data Type 115
  CR07,                                   !- Feature Value 115
  cambium_grid_region,                    !- Feature Name 116
  String,                                 !- Feature Data Type 116
  RFCEc,                                  !- Feature Value 116
  cluster_id,                             !- Feature Name 117
  String,                                 !- Feature Data Type 117
  39,                                     !- Feature Value 117
  cluster_name,                           !- Feature Name 118
  String,                                 !- Feature Data Type 118
  the Washington DC to Philadelphia Area, !- Feature Value 118
  grid_region,                            !- Feature Name 119
  String,                                 !- Feature Data Type 119
  RFCEc,                                  !- Feature Value 119
  Soil Conductivity,                      !- Feature Name 120
  Double,                                 !- Feature Data Type 120
  2,                                      !- Feature Value 120
  Undisturbed Ground Temperature,         !- Feature Name 121
  Double,                                 !- Feature Data Type 121
  14.699999999999999,                     !- Feature Value 121
  wall_as_constructed_template,           !- Feature Name 122