
OS:Version,
  {2fe86cee-3590-4515-bb34-d1654bb9a07c}, !- Handle
  3.8.0;                                  !- Version Identifier

OS:Building,
  {a5bc2d99-9665-4762-8a1e-307fbad42eef}, !- Handle
  ComStock DOE Ref Pre-1980|PrimarySchool, !- Name
  ,                                       !- Building Sector Type
  270,                                    !- North Axis {deg}
  ,                                       !- Nominal Floor to Floor Height {m}
  ,                                       !- Space Type Name
  {46055587-087c-4fca-b258-348c80abe82c}, !- Default Construction Set Name
  {b39c2638-31b2-45df-8813-a29887c82b1e}, !- Default Schedule Set Name
  ,                                       !- Standards Number of Stories
  ,                                       !- Standards Number of Above Ground Stories
  ,                                       !- Standards Template
  PrimarySchool;                          !- Standards Building Type

OS:Facility,
  {790f382e-3a26-4de9-8f1e-740966b3774d}; !- Handle

OS:Site,
  {6e26bf01-26fb-4b84-b0c0-5d86b2f5ef47}, !- Handle
  Buckley Afb_CO_USA,                     !- Name
  39.7,                                   !- Latitude {deg}
  -104.75,                                !- Longitude {deg}
  -7,                                     !- Time Zone {hr}
  1726,                                   !- Elevation {m}
  City;                                   !- Terrain

OS:SimulationControl,
  {fb21f24e-814c-41a8-b909-ca50cc4f56f9}, !- Handle
  Yes,                                    !- Do Zone Sizing Calculation
  Yes,                                    !- Do System Sizing Calculation
  Yes,                                    !- Do Plant Sizing Calculation
  No,                                     !- Run Simulation for Sizing Periods
  Yes,                                    !- Run Simulation for Weather File Run Periods
  ,                                       !- Loads Convergence Tolerance Value {W}
  ,                                       !- Temperature Convergence Tolerance Value {deltaC}
  ,                                       !- Solar Distribution
  ,                                       !- Maximum Number of Warmup Days
  ,                                       !- Minimum Number of Warmup Days
  No,                                     !- Do HVAC Sizing Simulation for Sizing Periods
  1;                                      !- Maximum Number of HVAC Sizing Simulation Passes

OS:Sizing:Parameters,
  {373442af-910c-4e1d-bed9-c2bd49aa4a81}, !- Handle
  1.25,                                   !- Heating Sizing Factor
  1.15;                                   !- Cooling Sizing Factor

OS:Timestep,
  {f650c3ad-dd08-4df5-a561-75c43261c5db}, !- Handle
  4;                                      !- Number of Timesteps per Hour

OS:ShadowCalculation,
  {58f28239-1573-4fe5-8fe9-ce7dd089150f}, !- Handle
  PolygonClipping,                        !- Shading Calculation Method
  ,                                       !- Shading Calculation Update Frequency Method
  20,                                     !- Shading Calculation Update Frequency
  15000,                                  !- Maximum Figures in Shadow Overlap Calculations
  ,                                       !- Polygon Clipping Algorithm
  512,                                    !- Pixel Counting Resolution
  ,                                       !- Sky Diffuse Modeling Algorithm
  No,                                     !- Output External Shading Calculation Results
  No,                                     !- Disable Self-Shading Within Shading Zone Groups
  No;                                     !- Disable Self-Shading From Shading Zone Groups to Other Zones

OS:HeatBalanceAlgorithm,
  {cbc5e59c-e591-4e0e-a171-78f1e796e639}, !- Handle
  ConductionTransferFunction,             !- Algorithm
  200;                                    !- Surface Temperature Upper Limit {C}

OS:RunPeriod,
  {6c5c00e2-9562-407f-9773-d0552c18e7dc}, !- Handle
  Run Period 1,                           !- Name
  1,                                      !- Begin Month
  1,                                      !- Begin Day of Month
  12,                                     !- End Month
  31,                                     !- End Day of Month
  ,                                       !- Use Weather File Holidays and Special Days
  ,                                       !- Use Weather File Daylight Saving Period
  ,                                       !- Apply Weekend Holiday Rule
  ,                                       !- Use Weather File Rain Indicators
  ,                                       !- Use Weather File Snow Indicators
  ;                                       !- Number of Times Runperiod to be Repeated

OS:LifeCycleCost:Parameters,
  {622b3c79-51df-4a90-b753-60ba316212a3}, !- Handle
  ,                                       !- Analysis Type
  ,                                       !- Discounting Convention
  ,                                       !- Inflation Approach
  ,                                       !- Real Discount Rate
  ,                                       !- Nominal Discount Rate
  ,                                       !- Inflation
  ,                                       !- Base Date Month
  ,                                       !- Base Date Year
  ,                                       !- Service Date Month
  ,                                       !- Service Date Year
  ;                                       !- Length of Study Period in Years

OS:WeatherFile,
  {f5a8f5c1-bbc0-4ccb-a5a9-b509a41c46b3}, !- Handle
  Buckley Afb,                            !- City
  CO,                                     !- State Province Region
  USA,                                    !- Country
  customized weather file,                !- Data Source
  724695,                                 !- WMO Number
  39.7,                                   !- Latitude {deg}
  -104.75,                                !- Longitude {deg}
  -7,                                     !- Time Zone {hr}
  1726,                                   !- Elevation {m}
  /weather/G0800050.epw,                  !- Url
  226BE93E,                               !- Checksum
  ,                                       !- Start Date Actual Year
  Friday;                                 !- Start Day of Week

OS:AdditionalProperties,
  {6ea676da-13d0-4f54-90ef-c61d2f71687a}, !- Handle
  {a5bc2d99-9665-4762-8a1e-307fbad42eef}, !- Object Name
  Building,                               !- Feature Name 1
  String,                                 !- Feature Data Type 1
  66188,                                  !- Feature Value 1
  energy_code_compliance_roof,            !- Feature Name 2
  String,                                 !- Feature Data Type 2
  comply,                                 !- Feature Value 2
  energy_code_compliance_walls,           !- Feature Name 3
  String,                                 !- Feature Data Type 3
  comply,                                 !- Feature Value 3
  energy_code_compliance_windows,         !- Feature Name 4
  String,                                 !- Feature Data Type 4
  comply,                                 !- Feature Value 4
  energy_code_followed_during_last_roof_replacement, !- Feature Name 5
  String,                                 !- Feature Data Type 5
  ComStock DOE Ref Pre-1980,              !- Feature Value 5
  energy_code_followed_during_last_walls_replacement, !- Feature Name 6
  String,                                 !- Feature Data Type 6
  ComStock DOE Ref Pre-1980,              !- Feature Value 6
  energy_code_followed_during_last_windows_replacement, !- Feature Name 7
  String,                                 !- Feature Data Type 7
  ComStock DOE Ref Pre-1980,              !- Feature Value 7
  energy_code_in_force_during_last_roof_replacement, !- Feature Name 8
  String,                                 !- Feature Data Type 8
  ComStock DOE Ref Pre-1980,              !- Feature Value 8
  energy_code_in_force_during_last_walls_replacement, !- Feature Name 9
  String,                                 !- Feature Data Type 9
  ComStock DOE Ref Pre-1980,              !- Feature Value 9
  energy_code_in_force_during_last_windows_replacement, !- Feature Name 10
  String,                                 !- Feature Data Type 10
  ComStock DOE Ref Pre-1980,              !- Feature Value 10
  year_bin_of_last_roof_replacement,      !- Feature Name 11
  String,                                 !- Feature Data Type 11
  pre_1978,                               !- Feature Value 11
  year_bin_of_last_walls_replacement,     !- Feature Name 12
  String,                                 !- Feature Data Type 12
  pre_1978,                               !- Feature Value 12
  year_bin_of_last_windows_replacement,   !- Feature Name 13
  String,                                 !- Feature Data Type 13
  pre_1978,                               !- Feature Value 13
  building_size_lighting_tech,            !- Feature Name 14
  String,                                 !- Feature Data Type 14
  small,                                  !- Feature Value 14
  energy_code_compliance_exterior_lighting, !- Feature Name 15
  String,                                 !- Feature Data Type 15
  comply,                                 !- Feature Value 15
  energy_code_compliance_interior_lighting, !- Feature Name 16
  String,                                 !- Feature Data Type 16
  lead,                                   !- Feature Value 16
  energy_code_followed_during_last_exterior_lighting_replacement, !- Feature Name 17
  String,                                 !- Feature Data Type 17
  ComStock DOE Ref 1980-2004,             !- Feature Value 17
  energy_code_followed_during_last_interior_lighting_replacement, !- Feature Name 18
  String,                                 !- Feature Data Type 18
  ComStock 90.1-2019,                     !- Feature Value 18
  energy_code_in_force_during_last_exterior_lighting_replacement, !- Feature Name 19
  String,                                 !- Feature Data Type 19
  ComStock DOE Ref 1980-2004,             !- Feature Value 19
  energy_code_in_force_during_last_interior_lighting_replacement, !- Feature Name 20
  String,                                 !- Feature Data Type 20
  ComStock 90.1-2010,                     !- Feature Value 20
  lighting_generation,                    !- Feature Name 21
  String,                                 !- Feature Data Type 21
  gen2_t8_halogen,                        !- Feature Value 21
  ltg_sch_base_peak_ratio_type,           !- Feature Name 22
  String,                                 !- Feature Data Type 22
  education_school_ltg_bpr_no_strict_schedule_towards_on, !- Feature Value 22
  ltg_sch_weekday_base_peak_ratio,        !- Feature Name 23
  String,                                 !- Feature Data Type 23
  0.9,                                    !- Feature Value 23
  ltg_sch_weekend_base_peak_ratio,        !- Feature Name 24
  String,                                 !- Feature Data Type 24
  0.95,                                   !- Feature Value 24
  year_bin_of_last_exterior_lighting_replacement, !- Feature Name 25
  String,                                 !- Feature Data Type 25
  2004,                                   !- Feature Value 25
  year_bin_of_last_interior_lighting_replacement, !- Feature Name 26
  String,                                 !- Feature Data Type 26
  2015,                                   !- Feature Value 26
  energy_code_compliance_service_water_heating, !- Feature Name 27
  String,                                 !- Feature Data Type 27
  comply,                                 !- Feature Value 27
  energy_code_compliance_interior_equipment, !- Feature Name 28
  String,                                 !- Feature Data Type 28
  comply,                                 !- Feature Value 28
  energy_code_followed_during_last_interior_equipment_replacement, !- Feature Name 29
  String,                                 !- Feature Data Type 29
  ComStock 90.1-2010,                     !- Feature Value 29
  energy_code_followed_during_last_service_water_heating_replacement, !- Feature Name 30
  String,                                 !- Feature Data Type 30
  ComStock DOE Ref 1980-2004,             !- Feature Value 30
  energy_code_in_force_during_last_interior_equipment_replacement, !- Feature Name 31
  String,                                 !- Feature Data Type 31
  ComStock 90.1-2010,                     !- Feature Value 31
  energy_code_in_force_during_last_service_water_heating_replacement, !- Feature Name 32
  String,                                 !- Feature Data Type 32
  ComStock DOE Ref 1980-2004,             !- Feature Value 32
  plugload_sch_base_peak_ratio_type,      !- Feature Name 33
  String,                                 !- Feature Data Type 33
  education_school_plugload_bpr_no_strict_schedule_towards_off, !- Feature Value 33
  plugload_sch_weekday_base_peak_ratio,   !- Feature Name 34
  String,                                 !- Feature Data Type 34
  0.05,                                   !- Feature Value 34
  plugload_sch_weekend_base_peak_ratio,   !- Feature Name 35
  String,                                 !- Feature Data Type 35
  0.55,                                   !- Feature Value 35
  year_bin_of_last_interior_equipment_replacement, !- Feature Name 36
  String,                                 !- Feature Data Type 36
  2014,                                   !- Feature Value 36
  year_bin_of_last_service_water_heating_replacement, !- Feature Name 37
  String,                                 !- Feature Data Type 37
  2006,                                   !- Feature Value 37
  cook_broiler_counts,                    !- Feature Name 38
  String,                                 !- Feature Data Type 38
  0.0,                                    !- Feature Value 38
  cook_dining_type,                       !- Feature Name 39
  String,                                 !- Feature Data Type 39
  None,                                   !- Feature Value 39
  cook_fryers_counts,                     !- Feature Name 40
  String,                                 !- Feature Data Type 40
  0.0,                                    !- Feature Value 40
  cook_fuel_broiler,                      !- Feature Name 41
  String,                                 !- Feature Data Type 41
  Gas,                                    !- Feature Value 41
  cook_fuel_fryer,                        !- Feature Name 42
  String,                                 !- Feature Data Type 42
  Gas,                                    !- Feature Value 42
  cook_fuel_griddle,                      !- Feature Name 43
  String,                                 !- Feature Data Type 43
  Gas,                                    !- Feature Value 43
  cook_fuel_oven,                         !- Feature Name 44
  String,                                 !- Feature Data Type 44
  Electric,                               !- Feature Value 44
  cook_fuel_range,                        !- Feature Name 45
  String,                                 !- Feature Data Type 45
  Gas,                                    !- Feature Value 45
  cook_fuel_steamer,                      !- Feature Name 46
  String,                                 !- Feature Data Type 46
  Electric,                               !- Feature Value 46
  cook_griddles_counts,                   !- Feature Name 47
  String,                                 !- Feature Data Type 47
  0.0,                                    !- Feature Value 47
  cook_ovens_counts,                      !- Feature Name 48
  String,                                 !- Feature Data Type 48
  0.0,                                    !- Feature Value 48
  cook_ranges_counts,                     !- Feature Name 49
  String,                                 !- Feature Data Type 49
  0.0,                                    !- Feature Value 49
  cook_steamers_counts,                   !- Feature Name 50
  String,                                 !- Feature Data Type 50
  0.0,                                    !- Feature Value 50
  energy_code_compliance_hvac,            !- Feature Name 51
  String,                                 !- Feature Data Type 51
  comply,                                 !- Feature Value 51
  energy_code_followed_during_last_hvac_replacement, !- Feature Name 52
  String,                                 !- Feature Data Type 52
  ComStock DOE Ref 1980-2004,             !- Feature Value 52
  energy_code_in_force_during_last_hvac_replacement, !- Feature Name 53
  String,                                 !- Feature Data Type 53
  ComStock DOE Ref 1980-2004,             !- Feature Value 53
  fault_economizer_damper_fully_closed,   !- Feature Name 54
  String,                                 !- Feature Data Type 54
  Fault oct,                              !- Feature Value 54
  fault_economizer_db_limit,              !- Feature Name 55
  String,                                 !- Feature Data Type 55
  No fault,                               !- Feature Value 55
  hvac_night_variability,                 !- Feature Name 56
  String,                                 !- Feature Data Type 56
  default_nochange,                       !- Feature Value 56
  hvac_tst_clg_delta_f,                   !- Feature Name 57
  String,                                 !- Feature Data Type 57
  6,                                      !- Feature Value 57
  hvac_tst_clg_sp_f,                      !- Feature Name 58
  String,                                 !- Feature Data Type 58
  71,                                     !- Feature Value 58
  hvac_tst_htg_delta_f,                   !- Feature Name 59
  String,                                 !- Feature Data Type 59
  8,                                      !- Feature Value 59
  hvac_tst_htg_sp_f,                      !- Feature Name 60
  String,                                 !- Feature Data Type 60
  68,                                     !- Feature Value 60
  year_bin_of_last_hvac_replacement,      !- Feature Name 61
  String,                                 !- Feature Data Type 61
  2007,                                   !- Feature Value 61
  airtightness,                           !- Feature Name 62
  String,                                 !- Feature Data Type 62
  20.0,                                   !- Feature Value 62
  aspect_ratio,                           !- Feature Name 63
  String,                                 !- Feature Data Type 63
  1,                                      !- Feature Value 63
  building_shape,                         !- Feature Name 64
  String,                                 !- Feature Data Type 64
  2,                                      !- Feature Value 64
  heating_fuel,                           !- Feature Name 65
  String,                                 !- Feature Data Type 65
  NaturalGas,                             !- Feature Value 65
  hvac_system_type,                       !- Feature Name 66
  String,                                 !- Feature Data Type 66
  Direct evap coolers with baseboard gas boiler, !- Feature Value 66
  rotation,                               !- Feature Name 67
  String,                                 !- Feature Data Type 67
  270,                                    !- Feature Value 67
  service_water_heating_fuel,             !- Feature Name 68
  String,                                 !- Feature Data Type 68
  NaturalGas,                             !- Feature Value 68
  wall_construction_type,                 !- Feature Name 69
  String,                                 !- Feature Data Type 69
  mass,                                   !- Feature Value 69
  weekday_duration,                       !- Feature Name 70
  String,                                 !- Feature Data Type 70
  8.0,                                    !- Feature Value 70
  weekday_start_time,                     !- Feature Name 71
  String,                                 !- Feature Data Type 71
  8.75,                                   !- Feature Value 71
  weekend_duration,                       !- Feature Name 72
  String,                                 !- Feature Data Type 72
  14.5,                                   !- Feature Value 72
  weekend_start_time,                     !- Feature Name 73
  String,                                 !- Feature Data Type 73
  7.5,                                    !- Feature Value 73
  energy_code_compliance_during_original_building_construction, !- Feature Name 74
  String,                                 !- Feature Data Type 74
  comply,                                 !- Feature Value 74
  energy_code_followed_during_original_building_construction, !- Feature Name 75
  String,                                 !- Feature Data Type 75
  ComStock DOE Ref Pre-1980,              !- Feature Value 75
  energy_code_in_force_during_original_building_construction, !- Feature Name 76
  String,                                 !- Feature Data Type 76
  ComStock DOE Ref Pre-1980,              !- Feature Value 76
  ownership_status,                       !- Feature Name 77
  String,                                 !- Feature Data Type 77
  owner_occupied,                         !- Feature Value 77
  party_responsible_for_operation,        !- Feature Name 78
  String,                                 !- Feature Data Type 78
  building_owner,                         !- Feature Value 78
  purchase_input_responsibility,          !- Feature Name 79
  String,                                 !- Feature Data Type 79
  building_owner,                         !- Feature Value 79
  window_wall_ratio,                      !- Feature Name 80
  String,                                 !- Feature Data Type 80
  26_50pct,                               !- Feature Value 80
  year_bin_of_original_building_construction, !- Feature Name 81
  String,                                 !- Feature Data Type 81
  pre_1978,                               !- Feature Value 81
  building_subtype,                       !- Feature Name 82
  String,                                 !- Feature Data Type 82
  NA,                                     !- Feature Value 82
  census_region,                          !- Feature Name 83
  String,                                 !- Feature Data Type 83
  Mountain,                               !- Feature Value 83
  climate_zone,                           !- Feature Name 84
  String,                                 !- Feature Data Type 84
  5B,                                     !- Feature Value 84
  ground_thermal_conductivity,            !- Feature Name 85
  String,                                 !- Feature Data Type 85
  0.8,                                    !- Feature Value 85
  year_of_simulation,                     !- Feature Name 86
  String,                                 !- Feature Data Type 86
  2018,                                   !- Feature Value 86
  building_area,                          !- Feature Name 87
  String,                                 !- Feature Data Type 87
  40001_52000,                            !- Feature Value 87
  building_type,                          !- Feature Name 88
  String,                                 !- Feature Data Type 88
  primary_school,                         !- Feature Value 88
  sampling_region,                        !- Feature Name 89
  String,                                 !- Feature Data Type 89
  4,                                      !- Feature Value 89
  size_bin,                               !- Feature Name 90
  String,                                 !- Feature Data Type 90
  1,                                      !- Feature Value 90
  tract,                                  !- Feature Name 91
  String,                                 !- Feature Data Type 91
  G0800050081900,                         !- Feature Value 91
  year_built,                             !- Feature Name 92
  String,                                 !- Feature Data Type 92
  1963,                                   !- Feature Value 92
  number_stories,                         !- Feature Name 93
  String,                                 !- Feature Data Type 93
  1,                                      !- Feature Value 93
  state_id,                               !- Feature Name 94
  String,                                 !- Feature Data Type 94
  G080,                                   !- Feature Value 94
  county_id,                              !- Feature Name 95
  String,                                 !- Feature Data Type 95
  G0800050,                               !- Feature Value 95
  baseline_hvac_sizing,                   !- Feature Name 96
  String,                                 !- Feature Data Type 96
  hardsize,                               !- Feature Value 96
  baseline_window_type,                   !- Feature Name 97
  String,                                 !- Feature Data Type 97
  Single - No LowE - Tinted/Reflective - Wood, !- Feature Value 97
  nhgis_tract_gisjoin,                    !- Feature Name 98
  String,                                 !- Feature Data Type 98
  G0800050081900,                         !- Feature Value 98
  nhgis_county_gisjoin,                   !- Feature Name 99
  String,                                 !- Feature Data Type 99
  G0800050,                               !- Feature Value 99
  nhgis_puma_gisjoin,                     !- Feature Name 100
  String,                                 !- Feature Data Type 100
  G08000809,                              !- Feature Value 100
  state_name,                             !- Feature Name 101
  String,                                 !- Feature Data Type 101
  Colorado,                               !- Feature Value 101
  state_abbreviation,                     !- Feature Name 102
  String,                                 !- Feature Data Type 102
  CO,                                     !- Feature Value 102
  census_division_name,                   !- Feature Name 103
  String,                                 !- Feature Data Type 103
  Mountain,                               !- Feature Value 103
  census_region_name,                     !- Feature Name 104
  String,                                 !- Feature Data Type 104
  West,                                   !- Feature Value 104
  census_division_name_recs,              !- Feature Name 105
  String,                                 !- Feature Data Type 105
  Mountain North,                         !- Feature Value 105
  american_housing_survey_region,         !- Feature Name 106
  String,                                 !- Feature Data Type 106
  Non-CBSA Mountain,                      !- Feature Value 106
  weather_file_2018,                      !- Feature Name 107
  String,                                 !- Feature Data Type 107
  USA_CO_Buckley.Afb.724695_2018.epw,     !- Feature Value 107
  weather_file_TMY3,                      !- Feature Name 108
  String,                                 !- Feature Data Type 108
  Aurora_Buckley_Field_Angb,              !- Feature Value 108
  climate_zone_building_america,          !- Feature Name 109
  String,                                 !- Feature Data Type 109
  Cold,                                   !- Feature Value 109
  climate_zone_ashrae_2006,               !- Feature Name 110
  String,                                 !- Feature Data Type 110
  5B,                                     !- Feature Value 110
  iso_region,                             !- Feature Name 111
  String,                                 !- Feature Data Type 111
  NotApplicable,                          !- Feature Value 111
  reeds_balancing_area,                   !- Feature Name 112
  String,                                 !- Feature Data Type 112
  33,                                     !- Feature Value 112
  resstock_county_id,                     !- Feature Name 113
  String,                                 !- Feature Data Type 113
  CO&#44 Arapahoe County,                 !- Feature Value 113
  resstock_puma_id,                       !- Feature Name 114
  String,                                 !- Feature Data Type 114
  CO&#44 00809,                           !- Feature Value 114
  resstock_custom_region,                 !- Feature Name 115
  String,                                 !- Feature Data Type 115
  CR05,                                   !- Feature Value 115
  cambium_grid_region,                    !- Feature Name 116
  String,                                 !- Feature Data Type 116
  RMPAc,                                  !- Feature Value 116
  cluster_id,                             !- Feature Name 117
  String,                                 !- Feature Data Type 117
  36,                                     !- Feature Value 117
  cluster_name,                           !- Feature Name 118
  String,                                 !- Feature Data Type 118
  the Cheyenne-Denver-Colorado Springs Area, !- Feature Value 118
  grid_region,                            !- Feature Name 119
  String,                                 !- Feature Data Type 119
  RMPAc,                                  !- Feature Value 119
  Soil Conductivity,                      !- Feature Name 120
  Double,                                 !- Feature Data Type 120
  0.80000000000000004,                    !- Feature Value 120
  Undisturbed Ground Temperature,         !- Feature Name 121
  Double,                                 !- Feature Data Type 121
  12.9,                                   !- Feature Value 121
  wall_as_constructed_template,           !- Feature Name 122