
OS:Version,
  {2a50bf32-eb1d-418f-970a-aecfc1b53375}, !- Handle
  2.9.1;                                  !- Version Identifier

OS:RunPeriodControl:DaylightSavingTime,
  {5e663d15-0a05-475f-b12b-2d907b7dfc5c}, !- Handle
  2nd Sunday in March,                    !- Start Date
  1st Sunday in November;                 !- End Date

OS:YearDescription,
  {098ed436-eb63-4b65-9864-b00cd12763a4}, !- Handle
  2015,                                   !- Calendar Year
  ,                                       !- Day of Week for Start Day
  ;                                       !- Is Leap Year

OS:Timestep,
  {cf276c67-22b3-48c3-89f8-ded440ed6675}, !- Handle
  4;                                      !- Number of Timesteps per Hour

OS:RunPeriod,
  {fe3eeea5-2f2e-47fa-9179-6bb744e2cbd1}, !- Handle
  Run Period 1,                           !- Name
  1,                                      !- Begin Month
  1,                                      !- Begin Day of Month
  12,                                     !- End Month
  30,                                     !- End Day of Month
  ,                                       !- Use Weather File Holidays and Special Days
  ,                                       !- Use Weather File Daylight Saving Period
  ,                                       !- Apply Weekend Holiday Rule
  ,                                       !- Use Weather File Rain Indicators
  ,                                       !- Use Weather File Snow Indicators
  ;                                       !- Number of Times Runperiod to be Repeated

OS:Site,
  {fc23c133-049f-4ccf-9af1-4c7b07759571}, !- Handle
  CA_LOS-ANGELES-DOWNTOWN-_-_USA,         !- Name
  34.03,                                  !- Latitude {deg}
  -118.3,                                 !- Longitude {deg}
  -8,                                     !- Time Zone {hr}
  56,                                     !- Elevation {m}
  City;                                   !- Terrain

OS:Site:WaterMainsTemperature,
  {10740698-21c7-4ec8-8640-e63d45d282ba}, !- Handle
  Correlation,                            !- Calculation Method
  ,                                       !- Temperature Schedule Name
  17.9083333333333,                       !- Annual Average Outdoor Air Temperature {C}
  10.6;                                   !- Maximum Difference In Monthly Average Outdoor Air Temperatures {deltaC}

OS:SizingPeriod:DesignDay,
  {ad02afb1-5680-4944-b66a-9b6ca1335a6b}, !- Handle
  CA_LOS-ANGELES-DOWNTOWN- Ann Clg .4% Condns DB=>MWB 1, !- Name
  32.8,                                   !- Maximum Dry-Bulb Temperature {C}
  9.7,                                    !- Daily Dry-Bulb Temperature Range {deltaC}
  18.9,                                   !- Humidity Indicating Conditions at Maximum Dry-Bulb
  100654,                                 !- Barometric Pressure {Pa}
  1.5,                                    !- Wind Speed {m/s}
  0,                                      !- Wind Direction {deg}
  0,                                      !- Sky Clearness
  0,                                      !- Rain Indicator
  0,                                      !- Snow Indicator
  21,                                     !- Day of Month
  8,                                      !- Month
  SummerDesignDay,                        !- Day Type
  0,                                      !- Daylight Saving Time Indicator
  Wetbulb,                                !- Humidity Indicating Type
  ,                                       !- Humidity Indicating Day Schedule Name
  DefaultMultipliers,                     !- Dry-Bulb Temperature Range Modifier Type
  ,                                       !- Dry-Bulb Temperature Range Modifier Schedule Name
  ASHRAETau,                              !- Solar Model Indicator
  ,                                       !- Beam Solar Day Schedule Name
  ,                                       !- Diffuse Solar Day Schedule Name
  0.361,                                  !- ASHRAE Taub {dimensionless}
  2.436;                                  !- ASHRAE Taud {dimensionless}

OS:SizingPeriod:DesignDay,
  {ff5f58a6-746d-4267-ba1e-cb5538c05ae2}, !- Handle
  CA_LOS-ANGELES-DOWNTOWN- Ann Clg .4% Condns WB=>MDB 1, !- Name
  29.2,                                   !- Maximum Dry-Bulb Temperature {C}
  9.7,                                    !- Daily Dry-Bulb Temperature Range {deltaC}
  22,                                     !- Humidity Indicating Conditions at Maximum Dry-Bulb
  100654,                                 !- Barometric Pressure {Pa}
  1.5,                                    !- Wind Speed {m/s}
  0,                                      !- Wind Direction {deg}
  0,                                      !- Sky Clearness
  0,                                      !- Rain Indicator
  0,                                      !- Snow Indicator
  21,                                     !- Day of Month
  8,                                      !- Month
  SummerDesignDay,                        !- Day Type
  0,                                      !- Daylight Saving Time Indicator
  Wetbulb,                                !- Humidity Indicating Type
  ,                                       !- Humidity Indicating Day Schedule Name
  DefaultMultipliers,                     !- Dry-Bulb Temperature Range Modifier Type
  ,                                       !- Dry-Bulb Temperature Range Modifier Schedule Name
  ASHRAETau,                              !- Solar Model Indicator
  ,                                       !- Beam Solar Day Schedule Name
  ,                                       !- Diffuse Solar Day Schedule Name
  0.361,                                  !- ASHRAE Taub {dimensionless}
  2.436;                                  !- ASHRAE Taud {dimensionless}

OS:SizingPeriod:DesignDay,
  {dab19397-8507-4687-a479-dd9cbdf32f4d}, !- Handle
  CA_LOS-ANGELES-DOWNTOWN- Ann Htg 99.6% Condns DB 1, !- Name
  6.2,                                    !- Maximum Dry-Bulb Temperature {C}
  0,                                      !- Daily Dry-Bulb Temperature Range {deltaC}
  6.2,                                    !- Humidity Indicating Conditions at Maximum Dry-Bulb
  100654,                                 !- Barometric Pressure {Pa}
  0.2,                                    !- Wind Speed {m/s}
  0,                                      !- Wind Direction {deg}
  0,                                      !- Sky Clearness
  0,                                      !- Rain Indicator
  0,                                      !- Snow Indicator
  21,                                     !- Day of Month
  12,                                     !- Month
  WinterDesignDay,                        !- Day Type
  0,                                      !- Daylight Saving Time Indicator
  Wetbulb,                                !- Humidity Indicating Type
  ,                                       !- Humidity Indicating Day Schedule Name
  DefaultMultipliers,                     !- Dry-Bulb Temperature Range Modifier Type
  ,                                       !- Dry-Bulb Temperature Range Modifier Schedule Name
  ASHRAEClearSky;                         !- Solar Model Indicator

OS:ClimateZones,
  {5f0fd175-9175-4683-b66f-f2a9c27d9c29}, !- Handle
  ,                                       !- Active Institution
  ,                                       !- Active Year
  CEC,                                    !- Climate Zone Institution Name 1
  California Climate Zone Descriptions,   !- Climate Zone Document Name 1
  1995,                                   !- Climate Zone Document Year 1
  ,                                       !- Climate Zone Value 1
  ASHRAE,                                 !- Climate Zone Institution Name 2
  ANSI/ASHRAE Standard 169,               !- Climate Zone Document Name 2
  2006,                                   !- Climate Zone Document Year 2
  3B;                                     !- Climate Zone Value 2

OS:SpaceType,
  {52b412ae-81e5-4e03-879b-57e902c3bfa4}, !- Handle
  SCn WarehouseCond - DEER Pre-1975,      !- Name
  ,                                       !- Default Construction Set Name
  {4c9f2ec3-1900-4992-a50d-c58c33cc9953}, !- Default Schedule Set Name
  ,                                       !- Group Rendering Name
  {f404e06c-ff40-4093-8f6a-606e37286674}, !- Design Specification Outdoor Air Object Name
  ,                                       !- Standards Template
  SCn,                                    !- Standards Building Type
  WarehouseCond;                          !- Standards Space Type

OS:Building,
  {3380dd5c-fd85-4858-a543-90e3a84c9fac}, !- Handle
  DEER Pre-1975|SCn,                      !- Name
  ,                                       !- Building Sector Type
  90,                                     !- North Axis {deg}
  ,                                       !- Nominal Floor to Floor Height {m}
  ,                                       !- Space Type Name
  {b5504557-30d1-441b-89e9-419eeac80913}, !- Default Construction Set Name
  {ac1c9e76-b3f2-4963-a490-8a6d47c556a2}, !- Default Schedule Set Name
  ,                                       !- Standards Number of Stories
  ,                                       !- Standards Number of Above Ground Stories
  ,                                       !- Standards Template
  SCn;                                    !- Standards Building Type

OS:BuildingStory,
  {3c4b62a2-fc16-48a4-a998-3e332cae6043}, !- Handle
  Story Ground,                           !- Name
  0,                                      !- Nominal Z Coordinate {m}
  6.096,                                  !- Nominal Floor to Floor Height {m}
  ,                                       !- Default Construction Set Name
  ,                                       !- Default Schedule Set Name
  ;                                       !- Group Rendering Name

OS:Space,
  {223b5fcf-534a-49c8-8cca-62d748ce9f80}, !- Handle
  SCn WarehouseCond A end_a - Story Ground, !- Name
  {52b412ae-81e5-4e03-879b-57e902c3bfa4}, !- Space Type Name
  ,                                       !- Default Construction Set Name
  ,                                       !- Default Schedule Set Name
  -0,                                     !- Direction of Relative North {deg}
  -20.1606249903122,                      !- X Origin {m}
  -20.1606249903122,                      !- Y Origin {m}
  0,                                      !- Z Origin {m}
  {3c4b62a2-fc16-48a4-a998-3e332cae6043}, !- Building Story Name
  {434efb0f-ca37-4db7-9947-319b889ca015}; !- Thermal Zone Name

OS:Surface,
  {84a163d8-55fb-41e6-887e-d2f03d4db4fc}, !- Handle
  Surface 1,                              !- Name
  Floor,                                  !- Surface Type
  ,                                       !- Construction Name
  {223b5fcf-534a-49c8-8cca-62d748ce9f80}, !- Space Name
  Ground,                                 !- Outside Boundary Condition
  ,                                       !- Outside Boundary Condition Object
  NoSun,                                  !- Sun Exposure
  NoWind,                                 !- Wind Exposure
  ,                                       !- View Factor to Ground
  ,                                       !- Number of Vertices
  -1.77635683940025e-14, -2.1316282072803e-14, 0, !- X,Y,Z Vertex 1 {m}
  -1.77635683940025e-14, 4.57199999999998, 0, !- X,Y,Z Vertex 2 {m}
  4.57199999999998, 4.57199999999998, 0,  !- X,Y,Z Vertex 3 {m}
  4.57199999999998, -2.1316282072803e-14, 0; !- X,Y,Z Vertex 4 {m}

OS:Surface,
  {398b4200-a399-4fd1-ba0d-799ee139c421}, !- Handle
  Surface 2,                              !- Name
  Wall,                                   !- Surface Type
  ,                                       !- Construction Name
  {223b5fcf-534a-49c8-8cca-62d748ce9f80}, !- Space Name
  Outdoors,                               !- Outside Boundary Condition
  ,                                       !- Outside Boundary Condition Object
  SunExposed,                             !- Sun Exposure
  WindExposed,                            !- Wind Exposure
  ,                                       !- View Factor to Ground
  ,                                       !- Number of Vertices
  -1.77635683940025e-14, 4.57199999999998, 6.096, !- X,Y,Z Vertex 1 {m}
  -1.77635683940025e-14, 4.57199999999998, 0, !- X,Y,Z Vertex 2 {m}
  -1.77635683940025e-14, -2.1316282072803e-14, 0, !- X,Y,Z Vertex 3 {m}
  -1.77635683940025e-14, -2.1316282072803e-14, 6.096; !- X,Y,Z Vertex 4 {m}

OS:Surface,
  {cded8b73-0715-4fb3-b56e-6c1396ab3ac6}, !- Handle
  Surface 3,                              !- Name
  Wall,                                   !- Surface Type
  ,                                       !- Construction Name
  {223b5fcf-534a-49c8-8cca-62d748ce9f80}, !- Space Name
  Surface,                                !- Outside Boundary Condition
  {f20cf0eb-4e41-4d79-bb7e-9e74d4994df1}, !- Outside Boundary Condition Object
  NoSun,                                  !- Sun Exposure
  NoWind,                                 !- Wind Exposure
  ,                                       !- View Factor to Ground
  ,                                       !- Number of Vertices
  4.57199999999998, 4.57199999999998, 6.096, !- X,Y,Z Vertex 1 {m}
  4.57199999999998, 4.57199999999998, 0,  !- X,Y,Z Vertex 2 {m}
  -1.77635683940025e-14, 4.57199999999998, 0, !- X,Y,Z Vertex 3 {m}
  -1.77635683940025e-14, 4.57199999999998, 6.096; !- X,Y,Z Vertex 4 {m}

OS:Surface,
  {96b310ef-ee13-498d-993c-c371ff5e8944}, !- Handle
  Surface 4,                              !- Name
  Wall,                                   !- Surface Type
  ,                                       !- Construction Name
  {223b5fcf-534a-49c8-8cca-62d748ce9f80}, !- Space Name
  Surface,                                !- Outside Boundary Condition
  {33be2345-7598-4974-b194-bb0ea870ac88}, !- Outside Boundary Condition Object
  NoSun,                                  !- Sun Exposure
  NoWind,                                 !- Wind Exposure
  ,                                       !- View Factor to Ground
  ,                                       !- Number of Vertices
  4.57199999999998, -2.1316282072803e-14, 6.096, !- X,Y,Z Vertex 1 {m}
  4.57199999999998, -2.1316282072803e-14, 0, !- X,Y,Z Vertex 2 {m}
  4.57199999999998, 4.57199999999998, 0,  !- X,Y,Z Vertex 3 {m}
  4.57199999999998, 4.57199999999998, 6.096; !- X,Y,Z Vertex 4 {m}

OS:Surface,
  {fafb7632-3e66-4293-96f9-9c56f9d2a264}, !- Handle
  Surface 5,                              !- Name
  Wall,                                   !- Surface Type
  ,                                       !- Construction Name
  {223b5fcf-534a-49c8-8cca-62d748ce9f80}, !- Space Name
  Outdoors,                               !- Outside Boundary Condition
  ,                                       !- Outside Boundary Condition Object
  SunExposed,                             !- Sun Exposure
  WindExposed,                            !- Wind Exposure
  ,                                       !- View Factor to Ground
  ,                                       !- Number of Vertices
  -1.77635683940025e-14, -2.1316282072803e-14, 6.096, !- X,Y,Z Vertex 1 {m}
  -1.77635683940025e-14, -2.1316282072803e-14, 0, !- X,Y,Z Vertex 2 {m}
  4.57199999999998, -2.1316282072803e-14, 0, !- X,Y,Z Vertex 3 {m}
  4.57199999999998, -2.1316282072803e-14, 6.096; !- X,Y,Z Vertex 4 {m}

OS:Surface,
  {49c7a04a-7489-42c5-afb6-b554b6acfd23}, !- Handle
  Surface 6,                              !- Name
  RoofCeiling,                            !- Surface Type
  ,                                       !- Construction Name
  {223b5fcf-534a-49c8-8cca-62d748ce9f80}, !- Space Name
  Outdoors,                               !- Outside Boundary Condition
  ,                                       !- Outside Boundary Condition Object
  SunExposed,                             !- Sun Exposure
  WindExposed,                            !- Wind Exposure
  ,                                       !- View Factor to Ground
  ,                                       !- Number of Vertices
  4.57199999999998, -2.1316282072803e-14, 6.096, !- X,Y,Z Vertex 1 {m}
  4.57199999999998, 4.57199999999998, 6.096, !- X,Y,Z Vertex 2 {m}
  -1.77635683940025e-14, 4.57199999999998, 6.096, !- X,Y,Z Vertex 3 {m}
  -1.77635683940025e-14, -2.1316282072803e-14, 6.096; !- X,Y,Z Vertex 4 {m}

OS:ThermalZone,
  {434efb0f-ca37-4db7-9947-319b889ca015}, !- Handle
  Zone SCn WarehouseCond A end_a - Story Ground, !- Name
  1,                                      !- Multiplier
  ,                                       !- Ceiling Height {m}
  ,                                       !- Volume {m3}
  ,                                       !- Floor Area {m2}
  ,                                       !- Zone Inside Convection Algorithm
  ,                                       !- Zone Outside Convection Algorithm
  ,                                       !- Zone Conditioning Equipment List Name
  {42746b8f-b67d-4446-8502-5930dc0fb20f}, !- Zone Air Inlet Port List
  {e20916c1-21ed-4943-8222-86ee8554881a}, !- Zone Air Exhaust Port List
  {44b7f6c3-3f76-4ee5-ab07-a3ff69dacbde}, !- Zone Air Node Name
  {e323c32e-c966-4e3e-a6b5-55778022c12e}, !- Zone Return Air Port List
  ,                                       !- Primary Daylighting Control Name
  ,                                       !- Fraction of Zone Controlled by Primary Daylighting Control
  ,                                       !- Secondary Daylighting Control Name
  ,                                       !- Fraction of Zone Controlled by Secondary Daylighting Control
  ,                                       !- Illuminance Map Name
  ,                                       !- Group Rendering Name
  {335236b6-b5bd-498b-9edb-6aa384116bb0}, !- Thermostat Name
  No;                                     !- Use Ideal Air Loads

OS:Node,
  {fec029b7-03e2-4f58-a619-5fcd683c6776}, !- Handle
  Zone SCn WarehouseCond A end_a - Story Ground Zone Air Node, !- Name
  {44b7f6c3-3f76-4ee5-ab07-a3ff69dacbde}, !- Inlet Port
  ;                                       !- Outlet Port

OS:Connection,
  {44b7f6c3-3f76-4ee5-ab07-a3ff69dacbde}, !- Handle
  {c7f6443e-df86-41dd-a0b2-79d538928078}, !- Name
  {434efb0f-ca37-4db7-9947-319b889ca015}, !- Source Object
  11,                                     !- Outlet Port
  {fec029b7-03e2-4f58-a619-5fcd683c6776}, !- Target Object
  2;                                      !- Inlet Port

OS:PortList,
  {42746b8f-b67d-4446-8502-5930dc0fb20f}, !- Handle
  {47e5ca86-1231-499d-b702-459beb115506}, !- Name
  {434efb0f-ca37-4db7-9947-319b889ca015}; !- HVAC Component

OS:PortList,
  {e20916c1-21ed-4943-8222-86ee8554881a}, !- Handle
  {cee6e12c-e819-4520-9e71-652ba39f6d70}, !- Name
  {434efb0f-ca37-4db7-9947-319b889ca015}; !- HVAC Component

OS:PortList,
  {e323c32e-c966-4e3e-a6b5-55778022c12e}, !- Handle
  {0b0a2668-34e0-4e8d-a3ef-aaa9f918d198}, !- Name
  {434efb0f-ca37-4db7-9947-319b889ca015}; !- HVAC Component

OS:Sizing:Zone,
  {f0337b4c-2f1b-45f7-90c0-be2299075abd}, !- Handle
  {434efb0f-ca37-4db7-9947-319b889ca015}, !- Zone or ZoneList Name
  SupplyAirTemperature,                   !- Zone Cooling Design Supply Air Temperature Input Method
  14,                                     !- Zone Cooling Design Supply Air Temperature {C}
  11.11,                                  !- Zone Cooling Design Supply Air Temperature Difference {deltaC}
  SupplyAirTemperature,                   !- Zone Heating Design Supply Air Temperature Input Method
  40,                                     !- Zone Heating Design Supply Air Temperature {C}
  11.11,                                  !- Zone Heating Design Supply Air Temperature Difference {deltaC}
  0.0085,                                 !- Zone Cooling Design Supply Air Humidity Ratio {kg-H2O/kg-air}
  0.008,                                  !- Zone Heating Design Supply Air Humidity Ratio {kg-H2O/kg-air}
  ,                                       !- Zone Heating Sizing Factor
  ,                                       !- Zone Cooling Sizing Factor
  DesignDay,                              !- Cooling Design Air Flow Method
  ,                                       !- Cooling Design Air Flow Rate {m3/s}
  ,                                       !- Cooling Minimum Air Flow per Zone Floor Area {m3/s-m2}
  ,                                       !- Cooling Minimum Air Flow {m3/s}
  ,                                       !- Cooling Minimum Air Flow Fraction
  DesignDay,                              !- Heating Design Air Flow Method
  ,                                       !- Heating Design Air Flow Rate {m3/s}
  ,                                       !- Heating Maximum Air Flow per Zone Floor Area {m3/s-m2}
  ,                                       !- Heating Maximum Air Flow {m3/s}
  ,                                       !- Heating Maximum Air Flow Fraction
  ,                                       !- Design Zone Air Distribution Effectiveness in Cooling Mode
  ,                                       !- Design Zone Air Distribution Effectiveness in Heating Mode
  No,                                     !- Account for Dedicated Outdoor Air System
  NeutralSupplyAir,                       !- Dedicated Outdoor Air System Control Strategy
  autosize,                               !- Dedicated Outdoor Air Low Setpoint Temperature for Design {C}
  autosize;                               !- Dedicated Outdoor Air High Setpoint Temperature for Design {C}

OS:ZoneHVAC:EquipmentList,
  {02a18a08-cfc9-48c1-9102-e8869051a48f}, !- Handle
  Zone SCn WarehouseCond A end_a - Story Ground Zone HVAC Equipment List, !- Name
  {434efb0f-ca37-4db7-9947-319b889ca015}, !- Thermal Zone
  ,                                       !- Load Distribution Scheme
  {7e6e7be7-c882-4913-ae73-c282e9324948}, !- Zone Equipment 1
  1,                                      !- Zone Equipment Cooling Sequence 1
  1,                                      !- Zone Equipment Heating or No-Load Sequence 1
  ,                                       !- Zone Equipment Sequential Cooling Fraction Schedule Name 1
  ;                                       !- Zone Equipment Sequential Heating Fraction Schedule Name 1

OS:Space,
  {68229753-4287-427a-a54b-c9ef2a1d2f06}, !- Handle
  SCn WarehouseCond B end_a - Story Ground, !- Name
  {52b412ae-81e5-4e03-879b-57e902c3bfa4}, !- Space Type Name
  ,                                       !- Default Construction Set Name
  ,                                       !- Default Schedule Set Name
  -0,                                     !- Direction of Relative North {deg}
  -20.1606249903122,                      !- X Origin {m}
  -15.5886249903122,                      !- Y Origin {m}
  0,                                      !- Z Origin {m}
  {3c4b62a2-fc16-48a4-a998-3e332cae6043}, !- Building Story Name
  {e96bf526-468a-487d-8b2c-13ada667daba}; !- Thermal Zone Name

OS:Surface,
  {502d68d8-a285-4160-bb50-e8d93b54b077}, !- Handle
  Surface 7,                              !- Name
  Floor,                                  !- Surface Type
  ,                                       !- Construction Name
  {68229753-4287-427a-a54b-c9ef2a1d2f06}, !- Space Name
  Ground,                                 !- Outside Boundary Condition
  ,                                       !- Outside Boundary Condition Object
  NoSun,                                  !- Sun Exposure
  NoWind,                                 !- Wind Exposure
  ,                                       !- View Factor to Ground
  ,                                       !- Number of Vertices
  -1.77635683940025e-14, -1.95399252334028e-14, 0, !- X,Y,Z Vertex 1 {m}
  -1.77635683940025e-14, 31.1772499806244, 0, !- X,Y,Z Vertex 2 {m}
  4.57199999999998, 31.1772499806244, 0,  !- X,Y,Z Vertex 3 {m}
  4.57199999999998, -1.95399252334028e-14, 0; !- X,Y,Z Vertex 4 {m}

OS:Surface,
  {9f01cb3a-766a-4426-b22d-6ab56300d2e0}, !- Handle
  Surface 8,                              !- Name
  Wall,                                   !- Surface Type
  ,                                       !- Construction Name
  {68229753-4287-427a-a54b-c9ef2a1d2f06}, !- Space Name
  Outdoors,                               !- Outside Boundary Condition
  ,                                       !- Outside Boundary Condition Object
  SunExposed,                             !- Sun Exposure
  WindExposed,                            !- Wind Exposure
  ,                                       !- View Factor to Ground
  ,                                       !- Number of Vertices
  -1.77635683940025e-14, 31.1772499806244, 6.096, !- X,Y,Z Vertex 1 {m}
  -1.77635683940025e-14, 31.1772499806244, 0, !- X,Y,Z Vertex 2 {m}
  -1.77635683940025e-14, -1.95399252334028e-14, 0, !- X,Y,Z Vertex 3 {m}
  -1.77635683940025e-14, -1.95399252334028e-14, 6.096; !- X,Y,Z Vertex 4 {m}

OS:Surface,
  {c8423e03-e3a3-4ffc-9fcd-513b3b31cc0a}, !- Handle
  Surface 9,                              !- Name
  Wall,                                   !- Surface Type
  ,                                       !- Construction Name
  {68229753-4287-427a-a54b-c9ef2a1d2f06}, !- Space Name
  Surface,                                !- Outside Boundary Condition
  {ee0788b6-9493-44c3-b532-5f2702f235f8}, !- Outside Boundary Condition Object
  NoSun,                                  !- Sun Exposure
  NoWind,                                 !- Wind Exposure
  ,                                       !- View Factor to Ground
  ,                                       !- Number of Vertices
  4.57199999999998, 31.1772499806244, 6.096, !- X,Y,Z Vertex 1 {m}
  4.57199999999998, 31.1772499806244, 0,  !- X,Y,Z Vertex 2 {m}
  -1.77635683940025e-14, 31.1772499806244, 0, !- X,Y,Z Vertex 3 {m}
  -1.77635683940025e-14, 31.1772499806244, 6.096; !- X,Y,Z Vertex 4 {m}

OS:Surface,
  {96e70176-fb15-4942-8073-230d5ec95e55}, !- Handle
  Surface 10,                             !- Name
  Wall,                                   !- Surface Type
  ,                                       !- Construction Name
  {68229753-4287-427a-a54b-c9ef2a1d2f06}, !- Space Name
  Surface,                                !- Outside Boundary Condition
  {db7ba309-30b3-49d4-bfd0-dcf7cbb3e1b6}, !- Outside Boundary Condition Object
  NoSun,                                  !- Sun Exposure
  NoWind,                                 !- Wind Exposure
  ,                                       !- View Factor to Ground
  ,                                       !- Number of Vertices
  4.57199999999998, -1.95399252334028e-14, 6.096, !- X,Y,Z Vertex 1 {m}
  4.57199999999998, -1.95399252334028e-14, 0, !- X,Y,Z Vertex 2 {m}
  4.57199999999998, 31.1772499806244, 0,  !- X,Y,Z Vertex 3 {m}
  4.57199999999998, 31.1772499806244, 6.096; !- X,Y,Z Vertex 4 {m}

OS:Surface,
  {f20cf0eb-4e41-4d79-bb7e-9e74d4994df1}, !- Handle
  Surface 11,                             !- Name
  Wall,                                   !- Surface Type
  ,                                       !- Construction Name
  {68229753-4287-427a-a54b-c9ef2a1d2f06}, !- Space Name
  Surface,                                !- Outside Boundary Condition
  {cded8b73-0715-4fb3-b56e-6c1396ab3ac6}, !- Outside Boundary Condition Object
  NoSun,                                  !- Sun Exposure
  NoWind,                                 !- Wind Exposure
  ,                                       !- View Factor to Ground
  ,                                       !- Number of Vertices
  -1.77635683940025e-14, -1.95399252334028e-14, 6.096, !- X,Y,Z Vertex 1 {m}
  -1.77635683940025e-14, -1.95399252334028e-14, 0, !- X,Y,Z Vertex 2 {m}
  4.57199999999998, -1.95399252334028e-14, 0, !- X,Y,Z Vertex 3 {m}
  4.57199999999998, -1.95399252334028e-14, 6.096; !- X,Y,Z Vertex 4 {m}

OS:Surface,
  {d0372e9b-1fd2-41e6-8a3e-40e748cb02a5}, !- Handle
  Surface 12,                             !- Name
  RoofCeiling,                            !- Surface Type
  ,                                       !- Construction Name
  {68229753-4287-427a-a54b-c9ef2a1d2f06}, !- Space Name
  Outdoors,                               !- Outside Boundary Condition
  ,                                       !- Outside Boundary Condition Object
  SunExposed,                             !- Sun Exposure
  WindExposed,                            !- Wind Exposure
  ,                                       !- View Factor to Ground
  ,                                       !- Number of Vertices
  4.57199999999998, -1.95399252334028e-14, 6.096, !- X,Y,Z Vertex 1 {m}
  4.57199999999998, 31.1772499806244, 6.096, !- X,Y,Z Vertex 2 {m}
  -1.77635683940025e-14, 31.1772499806244, 6.096, !- X,Y,Z Vertex 3 {m}
  -1.77635683940025e-14, -1.95399252334028e-14, 6.096; !- X,Y,Z Vertex 4 {m}

OS:ThermalZone,
  {e96bf526-468a-487d-8b2c-13ada667daba}, !- Handle
  Zone SCn WarehouseCond B end_a - Story Ground, !- Name
  1,                                      !- Multiplier
  ,                                       !- Ceiling Height {m}
  ,                                       !- Volume {m3}
  ,                                       !- Floor Area {m2}
  ,                                       !- Zone Inside Convection Algorithm
  ,                                       !- Zone Outside Convection Algorithm
  ,                                       !- Zone Conditioning Equipment List Name
  {2135bc31-e085-4547-b7a0-c41e6e00cad9}, !- Zone Air Inlet Port List
  {2da17eb9-3089-4bfa-bad2-975c480899e3}, !- Zone Air Exhaust Port List
  {bbfd85a2-7903-4ded-bdd1-ac132618d879}, !- Zone Air Node Name
  {d399e2af-de31-4e15-8517-f2e16b3ff1f3}, !- Zone Return Air Port List
  ,                                       !- Primary Daylighting Control Name
  ,                                       !- Fraction of Zone Controlled by Primary Daylighting Control