
OS:Version,
  {1dae8873-2dad-458a-98cd-b73c8403102f}, !- Handle
  3.6.1;                                  !- Version Identifier

OS:Facility,
  {7b19b5c5-6024-4b85-abc8-f3b1f5a3c264}; !- Handle

OS:Site,
  {99736420-73ed-4b46-a14d-69cea7975f26}, !- Handle
  Chicago Ohare Intl Ap,                  !- Name
  41.98,                                  !- Latitude {deg}
  -87.92,                                 !- Longitude {deg}
  -6,                                     !- Time Zone {hr}
  201,                                    !- Elevation {m}
  City;                                   !- Terrain

OS:SimulationControl,
  {5a72372b-de74-4591-be3c-e7e2b3473330}, !- Handle
  ,                                       !- Do Zone Sizing Calculation
  ,                                       !- Do System Sizing Calculation
  ,                                       !- Do Plant Sizing Calculation
  No,                                     !- Run Simulation for Sizing Periods
  Yes,                                    !- Run Simulation for Weather File Run Periods
  ,                                       !- Loads Convergence Tolerance Value {W}
  ,                                       !- Temperature Convergence Tolerance Value {deltaC}
  ,                                       !- Solar Distribution
  ,                                       !- Maximum Number of Warmup Days
  ,                                       !- Minimum Number of Warmup Days
  No,                                     !- Do HVAC Sizing Simulation for Sizing Periods
  1;                                      !- Maximum Number of HVAC Sizing Simulation Passes

OS:Sizing:Parameters,
  {1cc81204-a877-4720-9ca1-cb7e34db61de}, !- Handle
  1.25,                                   !- Heating Sizing Factor
  1.15;                                   !- Cooling Sizing Factor

OS:Timestep,
  {5fc71d20-9ca7-4ac5-9511-5332c160021c}, !- Handle
  4;                                      !- Number of Timesteps per Hour

OS:ShadowCalculation,
  {73ace88c-ad4c-4a3d-94f3-ee62c266acda}, !- Handle
  PolygonClipping,                        !- Shading Calculation Method
  ,                                       !- Shading Calculation Update Frequency Method
  20,                                     !- Shading Calculation Update Frequency
  15000,                                  !- Maximum Figures in Shadow Overlap Calculations
  ,                                       !- Polygon Clipping Algorithm
  512,                                    !- Pixel Counting Resolution
  ,                                       !- Sky Diffuse Modeling Algorithm
  No,                                     !- Output External Shading Calculation Results
  No,                                     !- Disable Self-Shading Within Shading Zone Groups
  No;                                     !- Disable Self-Shading From Shading Zone Groups to Other Zones

OS:HeatBalanceAlgorithm,
  {9a7cec26-b362-412d-8ce5-84e20d2b151b}, !- Handle
  ConductionTransferFunction,             !- Algorithm
  200;                                    !- Surface Temperature Upper Limit {C}

OS:RunPeriod,
  {f6031579-fe95-4f9b-8cd7-d2be84204a34}, !- Handle
  Run Period 1,                           !- Name
  1,                                      !- Begin Month
  1,                                      !- Begin Day of Month
  12,                                     !- End Month
  31,                                     !- End Day of Month
  ,                                       !- Use Weather File Holidays and Special Days
  ,                                       !- Use Weather File Daylight Saving Period
  ,                                       !- Apply Weekend Holiday Rule
  ,                                       !- Use Weather File Rain Indicators
  ,                                       !- Use Weather File Snow Indicators
  ;                                       !- Number of Times Runperiod to be Repeated

OS:LifeCycleCost:Parameters,
  {c9780300-c97c-41f1-a15f-12cd4279f883}, !- Handle
  ,                                       !- Analysis Type
  ,                                       !- Discounting Convention
  ,                                       !- Inflation Approach
  ,                                       !- Real Discount Rate
  ,                                       !- Nominal Discount Rate
  ,                                       !- Inflation
  ,                                       !- Base Date Month
  ,                                       !- Base Date Year
  ,                                       !- Service Date Month
  ,                                       !- Service Date Year
  ;                                       !- Length of Study Period in Years

OS:Site:WaterMainsTemperature,
  {718fe2b6-df58-429f-a975-09c646e81ee0}, !- Handle
  Correlation,                            !- Calculation Method
  ,                                       !- Temperature Schedule Name
  12.4016666666667,                       !- Annual Average Outdoor Air Temperature {C}
  28.18;                                  !- Maximum Difference In Monthly Average Outdoor Air Temperatures {deltaC}

OS:ClimateZones,
  {c9d10b02-5234-425a-9e73-1ef2493ca700}, !- Handle
  ASHRAE,                                 !- Climate Zone Institution Name 1
  ANSI/ASHRAE Standard 169,               !- Climate Zone Document Name 1
  2006,                                   !- Climate Zone Document Year 1
  ASHRAE 169-2013-5A,                     !- Climate Zone Value 1
  CEC,                                    !- Climate Zone Institution Name 2
  California Climate Zone Descriptions,   !- Climate Zone Document Name 2
  1995,                                   !- Climate Zone Document Year 2
  ;                                       !- Climate Zone Value 2

OS:Building,
  {7bdfa6f2-2b4a-4758-a8eb-ddb5d2b823e7}, !- Handle
  ComStock DOE Ref Pre-1980|Warehouse,    !- Name
  ,                                       !- Building Sector Type
  315,                                    !- North Axis {deg}
  ,                                       !- Nominal Floor to Floor Height {m}
  ,                                       !- Space Type Name
  {7f48d14e-d2d7-4890-bda7-627c370aee08}, !- Default Construction Set Name
  {f0c985cb-1a4d-4353-998f-57b7b7a1518b}, !- Default Schedule Set Name
  ,                                       !- Standards Number of Stories
  ,                                       !- Standards Number of Above Ground Stories
  ,                                       !- Standards Template
  Warehouse;                              !- Standards Building Type

OS:AdditionalProperties,
  {8e2ae4e0-caa2-4feb-9082-16b545f7eab5}, !- Handle
  {7bdfa6f2-2b4a-4758-a8eb-ddb5d2b823e7}, !- Object Name
  grid_region,                            !- Feature Name 1
  String,                                 !- Feature Data Type 1
  RFCWc,                                  !- Feature Value 1
  hvac_system_type,                       !- Feature Name 2
  String,                                 !- Feature Data Type 2
  Baseboard electric,                     !- Feature Value 2
  wall_as_constructed_template,           !- Feature Name 3
  String,                                 !- Feature Data Type 3
  ComStock DOE Ref Pre-1980,              !- Feature Value 3
  wall_template,                          !- Feature Name 4
  String,                                 !- Feature Data Type 4
  ComStock DOE Ref Pre-1980,              !- Feature Value 4
  roof_as_constructed_template,           !- Feature Name 5
  String,                                 !- Feature Data Type 5
  ComStock DOE Ref Pre-1980,              !- Feature Value 5
  roof_template,                          !- Feature Name 6
  String,                                 !- Feature Data Type 6
  ComStock DOE Ref Pre-1980,              !- Feature Value 6
  exterior_lighting_as_constructed_template, !- Feature Name 7
  String,                                 !- Feature Data Type 7
  ComStock DOE Ref Pre-1980,              !- Feature Value 7
  exterior_lighting_template,             !- Feature Name 8
  String,                                 !- Feature Data Type 8
  ComStock 90.1-2007,                     !- Feature Value 8
  interior_equipment_as_constructed_template, !- Feature Name 9
  String,                                 !- Feature Data Type 9
  ComStock DOE Ref Pre-1980,              !- Feature Value 9
  interior_equipment_template,            !- Feature Name 10
  String,                                 !- Feature Data Type 10
  ComStock 90.1-2007,                     !- Feature Value 10
  service_water_heating_as_constructed_template, !- Feature Name 11
  String,                                 !- Feature Data Type 11
  ComStock DOE Ref Pre-1980,              !- Feature Value 11
  service_water_heating_template,         !- Feature Name 12
  String,                                 !- Feature Data Type 12
  ComStock DOE Ref 1980-2004,             !- Feature Value 12
  hvac_as_constructed_template,           !- Feature Name 13
  String,                                 !- Feature Data Type 13
  ComStock DOE Ref Pre-1980,              !- Feature Value 13
  hvac_template,                          !- Feature Name 14
  String,                                 !- Feature Data Type 14
  ComStock DOE Ref 1980-2004;             !- Feature Value 14

OS:SpaceType,
  {4bfa8a0b-59fc-4f91-ad5d-cec626929608}, !- Handle
  Warehouse Office - ComStock DOE Ref Pre-1980, !- Name
  ,                                       !- Default Construction Set Name
  {38aaa8ef-f223-443b-9699-61154309cb4a}, !- Default Schedule Set Name
  {e65c549a-3cdb-47d4-94b1-566536411237}, !- Group Rendering Name
  {00afbe0b-9f24-4a51-813d-02a81a8b9c8e}, !- Design Specification Outdoor Air Object Name
  ,                                       !- Standards Template
  Warehouse,                              !- Standards Building Type
  Office;                                 !- Standards Space Type

OS:Rendering:Color,
  {e65c549a-3cdb-47d4-94b1-566536411237}, !- Handle
  Warehouse Office,                       !- Name
  120,                                    !- Rendering Red Value
  230,                                    !- Rendering Green Value
  199;                                    !- Rendering Blue Value

OS:SpaceType,
  {a26ef488-2b49-4dcb-95cc-36c17be9755f}, !- Handle
  Warehouse Fine - ComStock DOE Ref Pre-1980, !- Name
  ,                                       !- Default Construction Set Name
  {2bd5e8be-6346-452d-ae4c-445210a53218}, !- Default Schedule Set Name
  {1f24ecbb-ecc4-4364-8e70-fe64b3ed0d4a}, !- Group Rendering Name
  {9c32103e-fcb7-4275-9e68-3bb178c1ecf8}, !- Design Specification Outdoor Air Object Name
  ,                                       !- Standards Template
  Warehouse,                              !- Standards Building Type
  Fine;                                   !- Standards Space Type

OS:Rendering:Color,
  {1f24ecbb-ecc4-4364-8e70-fe64b3ed0d4a}, !- Handle
  Warehouse Fine,                         !- Name
  120,                                    !- Rendering Red Value
  149,                                    !- Rendering Green Value
  230;                                    !- Rendering Blue Value

OS:SpaceType,
  {483cc07f-9954-4db1-88de-78f90a5bfc6d}, !- Handle
  Warehouse Bulk - ComStock DOE Ref Pre-1980, !- Name
  ,                                       !- Default Construction Set Name
  {c0b4a70c-947d-4848-a29d-97cdb478aca1}, !- Default Schedule Set Name
  {a97dddc9-c701-4585-ae10-244979d59544}, !- Group Rendering Name
  {56f1703f-c18d-4b00-933c-07da7c2860e1}, !- Design Specification Outdoor Air Object Name
  ,                                       !- Standards Template
  Warehouse,                              !- Standards Building Type
  Bulk;                                   !- Standards Space Type

OS:Rendering:Color,
  {a97dddc9-c701-4585-ae10-244979d59544}, !- Handle
  Warehouse Bulk,                         !- Name
  41,                                     !- Rendering Red Value
  31,                                     !- Rendering Green Value
  169;                                    !- Rendering Blue Value

OS:BuildingStory,
  {75efd67b-c34b-4773-bf7e-f79111166ae0}, !- Handle
  Story Ground,                           !- Name
  0,                                      !- Nominal Z Coordinate {m}
  8.5344,                                 !- Nominal Floor to Floor Height {m}
  ,                                       !- Default Construction Set Name
  ,                                       !- Default Schedule Set Name
  ;                                       !- Group Rendering Name

OS:Space,
  {10dbc28d-ac7a-4087-b19b-ec639307f680}, !- Handle
  Warehouse Bulk A end_a - Story Ground,  !- Name
  {483cc07f-9954-4db1-88de-78f90a5bfc6d}, !- Space Type Name
  ,                                       !- Default Construction Set Name
  ,                                       !- Default Schedule Set Name
  -0,                                     !- Direction of Relative North {deg}
  -19.6604860265457,                      !- X Origin {m}
  -19.6604860265457,                      !- Y Origin {m}
  0,                                      !- Z Origin {m}
  {75efd67b-c34b-4773-bf7e-f79111166ae0}, !- Building Story Name
  {49c8f881-baf0-4bb0-ba83-64fdae168d8c}; !- Thermal Zone Name

OS:Surface,
  {c006380a-579f-4c92-bfe2-5c3e56615a3b}, !- Handle
  Surface 1,                              !- Name
  Floor,                                  !- Surface Type
  {6cfd4213-e68e-478b-8183-b09ecd991584}, !- Construction Name
  {10dbc28d-ac7a-4087-b19b-ec639307f680}, !- Space Name
  GroundFCfactorMethod,                   !- Outside Boundary Condition
  ,                                       !- Outside Boundary Condition Object
  NoSun,                                  !- Sun Exposure
  NoWind,                                 !- Wind Exposure
  ,                                       !- View Factor to Ground
  ,                                       !- Number of Vertices
  3.19744231092045e-14, 3.19744231092045e-14, 0, !- X,Y,Z Vertex 1 {m}
  3.19744231092045e-14, 4.57200000000003, 0, !- X,Y,Z Vertex 2 {m}
  4.57200000000003, 4.57200000000003, 0,  !- X,Y,Z Vertex 3 {m}
  4.57200000000003, 3.19744231092045e-14, 0; !- X,Y,Z Vertex 4 {m}

OS:Surface,
  {2560637f-d1df-46e8-b5e9-404c912a234d}, !- Handle
  Surface 2,                              !- Name
  Wall,                                   !- Surface Type
  ,                                       !- Construction Name
  {10dbc28d-ac7a-4087-b19b-ec639307f680}, !- Space Name
  Outdoors,                               !- Outside Boundary Condition
  ,                                       !- Outside Boundary Condition Object
  SunExposed,                             !- Sun Exposure
  WindExposed,                            !- Wind Exposure
  ,                                       !- View Factor to Ground
  ,                                       !- Number of Vertices
  3.19744231092045e-14, 4.57200000000003, 8.5344, !- X,Y,Z Vertex 1 {m}
  3.19744231092045e-14, 4.57200000000003, 0, !- X,Y,Z Vertex 2 {m}
  3.19744231092045e-14, 3.19744231092045e-14, 0, !- X,Y,Z Vertex 3 {m}
  3.19744231092045e-14, 3.19744231092045e-14, 8.5344; !- X,Y,Z Vertex 4 {m}

OS:Surface,
  {d9c6a943-aca0-4343-bbcc-6b380dc851d6}, !- Handle
  Surface 3,                              !- Name
  Wall,                                   !- Surface Type
  ,                                       !- Construction Name
  {10dbc28d-ac7a-4087-b19b-ec639307f680}, !- Space Name
  Surface,                                !- Outside Boundary Condition
  {f756d74d-9542-4900-a6ca-4448b682042b}, !- Outside Boundary Condition Object
  NoSun,                                  !- Sun Exposure
  NoWind,                                 !- Wind Exposure
  ,                                       !- View Factor to Ground
  ,                                       !- Number of Vertices
  4.57200000000003, 4.57200000000003, 8.5344, !- X,Y,Z Vertex 1 {m}
  4.57200000000003, 4.57200000000003, 0,  !- X,Y,Z Vertex 2 {m}
  3.19744231092045e-14, 4.57200000000003, 0, !- X,Y,Z Vertex 3 {m}
  3.19744231092045e-14, 4.57200000000003, 8.5344; !- X,Y,Z Vertex 4 {m}

OS:Surface,
  {91075829-bfd3-4a5a-89a4-66041d4c3de0}, !- Handle
  Surface 4,                              !- Name
  Wall,                                   !- Surface Type
  ,                                       !- Construction Name
  {10dbc28d-ac7a-4087-b19b-ec639307f680}, !- Space Name
  Surface,                                !- Outside Boundary Condition
  {7f3696fa-8d50-40fb-af2c-6e9c0c110828}, !- Outside Boundary Condition Object
  NoSun,                                  !- Sun Exposure
  NoWind,                                 !- Wind Exposure
  ,                                       !- View Factor to Ground
  ,                                       !- Number of Vertices
  4.57200000000003, 3.19744231092045e-14, 8.5344, !- X,Y,Z Vertex 1 {m}
  4.57200000000003, 3.19744231092045e-14, 0, !- X,Y,Z Vertex 2 {m}
  4.57200000000003, 4.57200000000003, 0,  !- X,Y,Z Vertex 3 {m}
  4.57200000000003, 4.57200000000003, 8.5344; !- X,Y,Z Vertex 4 {m}

OS:Surface,
  {609e20ea-23ea-40d5-908e-eec2e4f70fbe}, !- Handle
  Surface 5,                              !- Name
  Wall,                                   !- Surface Type
  ,                                       !- Construction Name
  {10dbc28d-ac7a-4087-b19b-ec639307f680}, !- Space Name
  Outdoors,                               !- Outside Boundary Condition
  ,                                       !- Outside Boundary Condition Object
  SunExposed,                             !- Sun Exposure
  WindExposed,                            !- Wind Exposure
  ,                                       !- View Factor to Ground
  ,                                       !- Number of Vertices
  3.19744231092045e-14, 3.19744231092045e-14, 8.5344, !- X,Y,Z Vertex 1 {m}
  3.19744231092045e-14, 3.19744231092045e-14, 0, !- X,Y,Z Vertex 2 {m}
  4.57200000000003, 3.19744231092045e-14, 0, !- X,Y,Z Vertex 3 {m}
  4.57200000000003, 3.19744231092045e-14, 8.5344; !- X,Y,Z Vertex 4 {m}

OS:Surface,
  {b15dd1ee-9123-480e-9c61-6dea0444f761}, !- Handle
  Surface 6,                              !- Name
  RoofCeiling,                            !- Surface Type
  ,                                       !- Construction Name
  {10dbc28d-ac7a-4087-b19b-ec639307f680}, !- Space Name
  Outdoors,                               !- Outside Boundary Condition
  ,                                       !- Outside Boundary Condition Object
  SunExposed,                             !- Sun Exposure
  WindExposed,                            !- Wind Exposure
  ,                                       !- View Factor to Ground
  ,                                       !- Number of Vertices
  4.57200000000003, 3.19744231092045e-14, 8.5344, !- X,Y,Z Vertex 1 {m}
  4.57200000000003, 4.57200000000003, 8.5344, !- X,Y,Z Vertex 2 {m}
  3.19744231092045e-14, 4.57200000000003, 8.5344, !- X,Y,Z Vertex 3 {m}
  3.19744231092045e-14, 3.19744231092045e-14, 8.5344; !- X,Y,Z Vertex 4 {m}

OS:ThermalZone,
  {49c8f881-baf0-4bb0-ba83-64fdae168d8c}, !- Handle
  Zone Warehouse Bulk A end_a - Story Ground, !- Name
  1,                                      !- Multiplier
  ,                                       !- Ceiling Height {m}
  ,                                       !- Volume {m3}
  ,                                       !- Floor Area {m2}
  ,                                       !- Zone Inside Convection Algorithm
  ,                                       !- Zone Outside Convection Algorithm
  ,                                       !- Zone Conditioning Equipment List Name
  {74256b72-10f2-43d9-9990-5090d395d7dd}, !- Zone Air Inlet Port List
  {872a17ba-e026-4083-9ab5-11d6ef6cd50c}, !- Zone Air Exhaust Port List
  {431cb967-b03b-4d30-b0ab-9b85848ff7c4}, !- Zone Air Node Name
  {762406bd-90cc-45cb-89f1-de018173844a}, !- Zone Return Air Port List
  ,                                       !- Primary Daylighting Control Name
  ,                                       !- Fraction of Zone Controlled by Primary Daylighting Control
  ,                                       !- Secondary Daylighting Control Name
  ,                                       !- Fraction of Zone Controlled by Secondary Daylighting Control
  ,                                       !- Illuminance Map Name
  {fdd726f7-1419-4d01-9a96-c6cd824170b1}, !- Group Rendering Name
  {1e6e9980-dbf9-471e-9647-0aba12ed700c}, !- Thermostat Name
  No;                                     !- Use Ideal Air Loads

OS:Node,
  {e98db764-f9d4-4909-ab46-d7d8c57f9e4a}, !- Handle
  Zone Warehouse Bulk A end_a - Story Ground Zone Air Node, !- Name
  {431cb967-b03b-4d30-b0ab-9b85848ff7c4}, !- Inlet Port
  ;                                       !- Outlet Port

OS:Connection,
  {431cb967-b03b-4d30-b0ab-9b85848ff7c4}, !- Handle
  {49c8f881-baf0-4bb0-ba83-64fdae168d8c}, !- Source Object
  11,                                     !- Outlet Port
  {e98db764-f9d4-4909-ab46-d7d8c57f9e4a}, !- Target Object
  2;                                      !- Inlet Port

OS:PortList,
  {74256b72-10f2-43d9-9990-5090d395d7dd}, !- Handle
  {49c8f881-baf0-4bb0-ba83-64fdae168d8c}; !- HVAC Component

OS:PortList,
  {872a17ba-e026-4083-9ab5-11d6ef6cd50c}, !- Handle
  {49c8f881-baf0-4bb0-ba83-64fdae168d8c}; !- HVAC Component

OS:PortList,
  {762406bd-90cc-45cb-89f1-de018173844a}, !- Handle
  {49c8f881-baf0-4bb0-ba83-64fdae168d8c}; !- HVAC Component

OS:Sizing:Zone,
  {d77178ea-af74-47d6-a424-9f5c115e808a}, !- Handle
  {49c8f881-baf0-4bb0-ba83-64fdae168d8c}, !- Zone or ZoneList Name
  SupplyAirTemperature,                   !- Zone Cooling Design Supply Air Temperature Input Method
  14,                                     !- Zone Cooling Design Supply Air Temperature {C}
  11.11,                                  !- Zone Cooling Design Supply Air Temperature Difference {deltaC}
  SupplyAirTemperature,                   !- Zone Heating Design Supply Air Temperature Input Method
  40,                                     !- Zone Heating Design Supply Air Temperature {C}
  11.11,                                  !- Zone Heating Design Supply Air Temperature Difference {deltaC}
  0.0085,                                 !- Zone Cooling Design Supply Air Humidity Ratio {kg-H2O/kg-air}
  0.008,                                  !- Zone Heating Design Supply Air Humidity Ratio {kg-H2O/kg-air}
  ,                                       !- Zone Heating Sizing Factor
  ,                                       !- Zone Cooling Sizing Factor
  DesignDay,                              !- Cooling Design Air Flow Method
  ,                                       !- Cooling Design Air Flow Rate {m3/s}
  ,                                       !- Cooling Minimum Air Flow per Zone Floor Area {m3/s-m2}
  ,                                       !- Cooling Minimum Air Flow {m3/s}
  ,                                       !- Cooling Minimum Air Flow Fraction
  DesignDay,                              !- Heating Design Air Flow Method
  ,                                       !- Heating Design Air Flow Rate {m3/s}
  ,                                       !- Heating Maximum Air Flow per Zone Floor Area {m3/s-m2}
  ,                                       !- Heating Maximum Air Flow {m3/s}
  ,                                       !- Heating Maximum Air Flow Fraction
  No,                                     !- Account for Dedicated Outdoor Air System
  NeutralSupplyAir,                       !- Dedicated Outdoor Air System Control Strategy
  autosize,                               !- Dedicated Outdoor Air Low Setpoint Temperature for Design {C}
  autosize,                               !- Dedicated Outdoor Air High Setpoint Temperature for Design {C}
  Sensible Load Only No Latent Load,      !- Zone Load Sizing Method
  HumidityRatioDifference,                !- Zone Latent Cooling Design Supply Air Humidity Ratio Input Method
  ,                                       !- Zone Dehumidification Design Supply Air Humidity Ratio {kgWater/kgDryAir}
  0.005,                                  !- Zone Cooling Design Supply Air Humidity Ratio Difference {kgWater/kgDryAir}
  HumidityRatioDifference,                !- Zone Latent Heating Design Supply Air Humidity Ratio Input Method
  ,                                       !- Zone Humidification Design Supply Air Humidity Ratio {kgWater/kgDryAir}
  0.005;                                  !- Zone Humidification Design Supply Air Humidity Ratio Difference {kgWater/kgDryAir}

OS:ZoneHVAC:EquipmentList,
  {287d06c0-eec5-4e60-aae3-299c2af2e3d1}, !- Handle
  Zone Warehouse Bulk A end_a - Story Ground Zone HVAC Equipment List, !- Name
  {49c8f881-baf0-4bb0-ba83-64fdae168d8c}, !- Thermal Zone
  ,                                       !- Load Distribution Scheme
  {3f976fdd-e920-4514-be0c-9b8f90605341}, !- Zone Equipment 1
  1,                                      !- Zone Equipment Cooling Sequence 1
  1,                                      !- Zone Equipment Heating or No-Load Sequence 1
  ,                                       !- Zone Equipment Sequential Cooling Fraction Schedule Name 1
  ;                                       !- Zone Equipment Sequential Heating Fraction Schedule Name 1

OS:Space,
  {9f670cfb-e54b-4073-8411-169db73aea2e}, !- Handle
  Warehouse Bulk B end_a - Story Ground,  !- Name
  {483cc07f-9954-4db1-88de-78f90a5bfc6d}, !- Space Type Name
  ,                                       !- Default Construction Set Name
  ,                                       !- Default Schedule Set Name
  -0,                                     !- Direction of Relative North {deg}
  -19.6604860265457,                      !- X Origin {m}
  -15.0884860265457,                      !- Y Origin {m}
  0,                                      !- Z Origin {m}
  {75efd67b-c34b-4773-bf7e-f79111166ae0}, !- Building Story Name
  {5f16f68e-f32c-48dc-a64d-26cb7a24e69e}; !- Thermal Zone Name

OS:Surface,
  {346f3c46-7221-4af6-9059-4729aa49e443}, !- Handle
  Surface 7,                              !- Name
  Floor,                                  !- Surface Type
  {9e971580-0f13-4e84-b418-38a23fbe74dd}, !- Construction Name
  {9f670cfb-e54b-4073-8411-169db73aea2e}, !- Space Name
  GroundFCfactorMethod,                   !- Outside Boundary Condition
  ,                                       !- Outside Boundary Condition Object
  NoSun,                                  !- Sun Exposure
  NoWind,                                 !- Wind Exposure
  ,                                       !- View Factor to Ground
  ,                                       !- Number of Vertices
  3.19744231092045e-14, 3.37507799486048e-14, 0, !- X,Y,Z Vertex 1 {m}
  3.19744231092045e-14, 30.1769720530914, 0, !- X,Y,Z Vertex 2 {m}
  4.57200000000003, 30.1769720530914, 0,  !- X,Y,Z Vertex 3 {m}
  4.57200000000003, 3.37507799486048e-14, 0; !- X,Y,Z Vertex 4 {m}

OS:Surface,
  {3ab60fe7-be67-4e29-802f-12d5857667b1}, !- Handle
  Surface 8,                              !- Name
  Wall,                                   !- Surface Type
  ,                                       !- Construction Name
  {9f670cfb-e54b-4073-8411-169db73aea2e}, !- Space Name
  Outdoors,                               !- Outside Boundary Condition
  ,                                       !- Outside Boundary Condition Object
  SunExposed,                             !- Sun Exposure
  WindExposed,                            !- Wind Exposure
  ,                                       !- View Factor to Ground
  ,                                       !- Number of Vertices
  3.19744231092045e-14, 30.1769720530914, 8.5344, !- X,Y,Z Vertex 1 {m}
  3.19744231092045e-14, 30.1769720530914, 0, !- X,Y,Z Vertex 2 {m}
  3.19744231092045e-14, 3.37507799486048e-14, 0, !- X,Y,Z Vertex 3 {m}
  3.19744231092045e-14, 3.37507799486048e-14, 8.5344; !- X,Y,Z Vertex 4 {m}

OS:Surface,
  {6b835379-157b-4f3a-a147-15ba77358093}, !- Handle
  Surface 9,                              !- Name
  Wall,                                   !- Surface Type
  ,                                       !- Construction Name
  {9f670cfb-e54b-4073-8411-169db73aea2e}, !- Space Name
  Surface,                                !- Outside Boundary Condition
  {4f552a8c-d993-4b41-8710-680cf2cfe8e1}, !- Outside Boundary Condition Object
  NoSun,                                  !- Sun Exposure
  NoWind,                                 !- Wind Exposure
  ,                                       !- View Factor to Ground
  ,                                       !- Number of Vertices
  4.57200000000003, 30.1769720530914, 8.5344, !- X,Y,Z Vertex 1 {m}
  4.57200000000003, 30.1769720530914, 0,  !- X,Y,Z Vertex 2 {m}
  3.19744231092045e-14, 30.1769720530914, 0, !- X,Y,Z Vertex 3 {m}
  3.19744231092045e-14, 30.1769720530914, 8.5344; !- X,Y,Z Vertex 4 {m}

OS:Surface,
  {a07f9b40-72de-4703-bf2e-b2c7d6943208}, !- Handle
  Surface 10,                             !- Name
  Wall,                                   !- Surface Type
  ,                                       !- Construction Name
  {9f670cfb-e54b-4073-8411-169db73aea2e}, !- Space Name
  Surface,                                !- Outside Boundary Condition
  {ef164dc7-8780-4576-95d6-404783f2288b}, !- Outside Boundary Condition Object
  NoSun,                                  !- Sun Exposure
  NoWind,                                 !- Wind Exposure
  ,                                       !- View Factor to Ground
  ,                                       !- Number of Vertices
  4.57200000000003, 3.37507799486048e-14, 8.5344, !- X,Y,Z Vertex 1 {m}
  4.57200000000003, 3.37507799486048e-14, 0, !- X,Y,Z Vertex 2 {m}
  4.57200000000003, 30.1769720530914, 0,  !- X,Y,Z Vertex 3 {m}