
OS:Version,
  {e7a2dae9-ce38-450a-a015-7dfb4d8eb8db}, !- Handle
  2.8.1;                                  !- Version Identifier

OS:WeatherFile,
  {30128e5f-4eb6-4bf3-bca9-470f3c483cd0}, !- Handle
  Robins Afb,                             !- City
  GA,                                     !- State Province Region
  USA,                                    !- Country
  customized weather file,                !- Data Source
  722175,                                 !- WMO Number
  32.63,                                  !- Latitude {deg}
  -83.6,                                  !- Longitude {deg}
  -5,                                     !- Time Zone {hr}
  90,                                     !- Elevation {m}
  file:////weather/USA_GA_Robins.Afb.722175_2012.epw, !- Url
  226BE93E;                               !- Checksum

OS:RunPeriodControl:DaylightSavingTime,
  {7eefbb71-9d4e-442d-9501-8bc7387bb532}, !- Handle
  2nd Sunday in March,                    !- Start Date
  1st Sunday in November;                 !- End Date

OS:YearDescription,
  {1c6ab3e3-97fe-457f-bca8-9dd3583e921f}, !- Handle
  2016,                                   !- Calendar Year
  ,                                       !- Day of Week for Start Day
  ;                                       !- Is Leap Year

OS:Timestep,
  {cfaeb86d-b828-47c1-95d1-f9f7bdd0dd5c}, !- Handle
  4;                                      !- Number of Timesteps per Hour

OS:RunPeriod,
  {d3cd1b9d-0d0f-4926-bc1c-9463a516bb1f}, !- Handle
  Run Period 1,                           !- Name
  1,                                      !- Begin Month
  1,                                      !- Begin Day of Month
  12,                                     !- End Month
  30,                                     !- End Day of Month
  ,                                       !- Use Weather File Holidays and Special Days
  ,                                       !- Use Weather File Daylight Saving Period
  ,                                       !- Apply Weekend Holiday Rule
  ,                                       !- Use Weather File Rain Indicators
  ,                                       !- Use Weather File Snow Indicators
  ;                                       !- Number of Times Runperiod to be Repeated

OS:Site,
  {d4022583-b04d-44ed-b14b-f0d347c0d827}, !- Handle
  Robins Afb_GA_USA,                      !- Name
  32.63,                                  !- Latitude {deg}
  -83.6,                                  !- Longitude {deg}
  -5,                                     !- Time Zone {hr}
  90,                                     !- Elevation {m}
  City;                                   !- Terrain

OS:Site:WaterMainsTemperature,
  {b1d7a39c-b916-4030-9459-0ddd2c03e07a}, !- Handle
  Correlation,                            !- Calculation Method
  ,                                       !- Temperature Schedule Name
  18.825,                                 !- Annual Average Outdoor Air Temperature {C}
  17.5;                                   !- Maximum Difference In Monthly Average Outdoor Air Temperatures {deltaC}

OS:SizingPeriod:DesignDay,
  {1636f0a1-c57f-4c71-a819-ca984cc9251d}, !- Handle
  Robins Afb Ann Clg .4% Condns DB=>MWB 1, !- Name
  36.1,                                   !- Maximum Dry-Bulb Temperature {C}
  11.3,                                   !- Daily Dry-Bulb Temperature Range {deltaC}
  24.2,                                   !- Humidity Indicating Conditions at Maximum Dry-Bulb
  100248,                                 !- Barometric Pressure {Pa}
  3.4,                                    !- Wind Speed {m/s}
  320,                                    !- Wind Direction {deg}
  0,                                      !- Sky Clearness
  0,                                      !- Rain Indicator
  0,                                      !- Snow Indicator
  21,                                     !- Day of Month
  7,                                      !- Month
  SummerDesignDay,                        !- Day Type
  0,                                      !- Daylight Saving Time Indicator
  Wetbulb,                                !- Humidity Indicating Type
  ,                                       !- Humidity Indicating Day Schedule Name
  DefaultMultipliers,                     !- Dry-Bulb Temperature Range Modifier Type
  ,                                       !- Dry-Bulb Temperature Range Modifier Schedule Name
  ASHRAETau,                              !- Solar Model Indicator
  ,                                       !- Beam Solar Day Schedule Name
  ,                                       !- Diffuse Solar Day Schedule Name
  0.44,                                   !- ASHRAE Taub {dimensionless}
  2.223;                                  !- ASHRAE Taud {dimensionless}

OS:SizingPeriod:DesignDay,
  {6d612c7f-f376-4f05-97cc-1af21ff4d4fe}, !- Handle
  Robins Afb Ann Clg .4% Condns WB=>MDB 1, !- Name
  32.4,                                   !- Maximum Dry-Bulb Temperature {C}
  11.3,                                   !- Daily Dry-Bulb Temperature Range {deltaC}
  26.3,                                   !- Humidity Indicating Conditions at Maximum Dry-Bulb
  100248,                                 !- Barometric Pressure {Pa}
  3.4,                                    !- Wind Speed {m/s}
  320,                                    !- Wind Direction {deg}
  0,                                      !- Sky Clearness
  0,                                      !- Rain Indicator
  0,                                      !- Snow Indicator
  21,                                     !- Day of Month
  7,                                      !- Month
  SummerDesignDay,                        !- Day Type
  0,                                      !- Daylight Saving Time Indicator
  Wetbulb,                                !- Humidity Indicating Type
  ,                                       !- Humidity Indicating Day Schedule Name
  DefaultMultipliers,                     !- Dry-Bulb Temperature Range Modifier Type
  ,                                       !- Dry-Bulb Temperature Range Modifier Schedule Name
  ASHRAETau,                              !- Solar Model Indicator
  ,                                       !- Beam Solar Day Schedule Name
  ,                                       !- Diffuse Solar Day Schedule Name
  0.44,                                   !- ASHRAE Taub {dimensionless}
  2.223;                                  !- ASHRAE Taud {dimensionless}

OS:SizingPeriod:DesignDay,
  {2f2a2d29-0dcb-4f5c-848d-f0b04b5a13d2}, !- Handle
  Robins Afb Ann Clg 1% Condns DB=>MWB 1, !- Name
  34.8,                                   !- Maximum Dry-Bulb Temperature {C}
  11.3,                                   !- Daily Dry-Bulb Temperature Range {deltaC}
  24.1,                                   !- Humidity Indicating Conditions at Maximum Dry-Bulb
  100248,                                 !- Barometric Pressure {Pa}
  3.4,                                    !- Wind Speed {m/s}
  320,                                    !- Wind Direction {deg}
  0,                                      !- Sky Clearness
  0,                                      !- Rain Indicator
  0,                                      !- Snow Indicator
  21,                                     !- Day of Month
  7,                                      !- Month
  SummerDesignDay,                        !- Day Type
  0,                                      !- Daylight Saving Time Indicator
  Wetbulb,                                !- Humidity Indicating Type
  ,                                       !- Humidity Indicating Day Schedule Name
  DefaultMultipliers,                     !- Dry-Bulb Temperature Range Modifier Type
  ,                                       !- Dry-Bulb Temperature Range Modifier Schedule Name
  ASHRAETau,                              !- Solar Model Indicator
  ,                                       !- Beam Solar Day Schedule Name
  ,                                       !- Diffuse Solar Day Schedule Name
  0.44,                                   !- ASHRAE Taub {dimensionless}
  2.223;                                  !- ASHRAE Taud {dimensionless}

OS:SizingPeriod:DesignDay,
  {ec52c549-1c51-4c75-9533-110e0246803b}, !- Handle
  Robins Afb Ann Clg 2% Condns DP=>MDB 1, !- Name
  27.2,                                   !- Maximum Dry-Bulb Temperature {C}
  11.3,                                   !- Daily Dry-Bulb Temperature Range {deltaC}
  23.8,                                   !- Humidity Indicating Conditions at Maximum Dry-Bulb
  100248,                                 !- Barometric Pressure {Pa}
  3.4,                                    !- Wind Speed {m/s}
  320,                                    !- Wind Direction {deg}
  0,                                      !- Sky Clearness
  0,                                      !- Rain Indicator
  0,                                      !- Snow Indicator
  21,                                     !- Day of Month
  7,                                      !- Month
  SummerDesignDay,                        !- Day Type
  0,                                      !- Daylight Saving Time Indicator
  Dewpoint,                               !- Humidity Indicating Type
  ,                                       !- Humidity Indicating Day Schedule Name
  DefaultMultipliers,                     !- Dry-Bulb Temperature Range Modifier Type
  ,                                       !- Dry-Bulb Temperature Range Modifier Schedule Name
  ASHRAETau,                              !- Solar Model Indicator
  ,                                       !- Beam Solar Day Schedule Name
  ,                                       !- Diffuse Solar Day Schedule Name
  0.44,                                   !- ASHRAE Taub {dimensionless}
  2.223;                                  !- ASHRAE Taud {dimensionless}

OS:SizingPeriod:DesignDay,
  {780a635f-0f6b-4e09-a46d-b92d6ad073b5}, !- Handle
  Robins Afb Ann Htg 99% Condns DB 1,     !- Name
  -2.3,                                   !- Maximum Dry-Bulb Temperature {C}
  0,                                      !- Daily Dry-Bulb Temperature Range {deltaC}
  -2.3,                                   !- Humidity Indicating Conditions at Maximum Dry-Bulb
  100248,                                 !- Barometric Pressure {Pa}
  2.2,                                    !- Wind Speed {m/s}
  330,                                    !- Wind Direction {deg}
  0,                                      !- Sky Clearness
  0,                                      !- Rain Indicator
  0,                                      !- Snow Indicator
  21,                                     !- Day of Month
  1,                                      !- Month
  WinterDesignDay,                        !- Day Type
  0,                                      !- Daylight Saving Time Indicator
  Wetbulb,                                !- Humidity Indicating Type
  ,                                       !- Humidity Indicating Day Schedule Name
  DefaultMultipliers,                     !- Dry-Bulb Temperature Range Modifier Type
  ,                                       !- Dry-Bulb Temperature Range Modifier Schedule Name
  ASHRAEClearSky;                         !- Solar Model Indicator

OS:SizingPeriod:DesignDay,
  {9636061d-5bb1-4a2e-8b1e-625315edffc0}, !- Handle
  Robins Afb Ann Htg 99.6% Condns DB 1,   !- Name
  -3.9,                                   !- Maximum Dry-Bulb Temperature {C}
  0,                                      !- Daily Dry-Bulb Temperature Range {deltaC}
  -3.9,                                   !- Humidity Indicating Conditions at Maximum Dry-Bulb
  100248,                                 !- Barometric Pressure {Pa}
  2.2,                                    !- Wind Speed {m/s}
  330,                                    !- Wind Direction {deg}
  0,                                      !- Sky Clearness
  0,                                      !- Rain Indicator
  0,                                      !- Snow Indicator
  21,                                     !- Day of Month
  1,                                      !- Month
  WinterDesignDay,                        !- Day Type
  0,                                      !- Daylight Saving Time Indicator
  Wetbulb,                                !- Humidity Indicating Type
  ,                                       !- Humidity Indicating Day Schedule Name
  DefaultMultipliers,                     !- Dry-Bulb Temperature Range Modifier Type
  ,                                       !- Dry-Bulb Temperature Range Modifier Schedule Name
  ASHRAEClearSky;                         !- Solar Model Indicator

OS:SizingPeriod:DesignDay,
  {8b9c183a-a1ad-4a85-98d5-62dff324ba3e}, !- Handle
  Robins Afb Ann Htg Wind 99% Condns WS=>MCDB 1, !- Name
  9.5,                                    !- Maximum Dry-Bulb Temperature {C}
  0,                                      !- Daily Dry-Bulb Temperature Range {deltaC}
  9.5,                                    !- Humidity Indicating Conditions at Maximum Dry-Bulb
  100248,                                 !- Barometric Pressure {Pa}
  9.1,                                    !- Wind Speed {m/s}
  330,                                    !- Wind Direction {deg}
  0,                                      !- Sky Clearness
  0,                                      !- Rain Indicator
  0,                                      !- Snow Indicator
  21,                                     !- Day of Month
  1,                                      !- Month
  WinterDesignDay,                        !- Day Type
  0,                                      !- Daylight Saving Time Indicator
  Wetbulb,                                !- Humidity Indicating Type
  ,                                       !- Humidity Indicating Day Schedule Name
  DefaultMultipliers,                     !- Dry-Bulb Temperature Range Modifier Type
  ,                                       !- Dry-Bulb Temperature Range Modifier Schedule Name
  ASHRAEClearSky;                         !- Solar Model Indicator

OS:SizingPeriod:DesignDay,
  {42b330fa-7ad9-4d88-875d-d35c0c317e91}, !- Handle
  Robins Afb April .4% Condns DB=>MCWB 1, !- Name
  32.3,                                   !- Maximum Dry-Bulb Temperature {C}
  13.7,                                   !- Daily Dry-Bulb Temperature Range {deltaC}
  20.6,                                   !- Humidity Indicating Conditions at Maximum Dry-Bulb
  100248,                                 !- Barometric Pressure {Pa}
  3.4,                                    !- Wind Speed {m/s}
  320,                                    !- Wind Direction {deg}
  0,                                      !- Sky Clearness
  0,                                      !- Rain Indicator
  0,                                      !- Snow Indicator
  21,                                     !- Day of Month
  4,                                      !- Month
  SummerDesignDay,                        !- Day Type
  0,                                      !- Daylight Saving Time Indicator
  Wetbulb,                                !- Humidity Indicating Type
  ,                                       !- Humidity Indicating Day Schedule Name
  DefaultMultipliers,                     !- Dry-Bulb Temperature Range Modifier Type
  ,                                       !- Dry-Bulb Temperature Range Modifier Schedule Name
  ASHRAETau,                              !- Solar Model Indicator
  ,                                       !- Beam Solar Day Schedule Name
  ,                                       !- Diffuse Solar Day Schedule Name
  0.389,                                  !- ASHRAE Taub {dimensionless}
  2.319;                                  !- ASHRAE Taud {dimensionless}

OS:SizingPeriod:DesignDay,
  {49616d68-6bca-42d9-8ec5-279dde56a751}, !- Handle
  Robins Afb April .4% Condns WB=>MCDB 1, !- Name
  28.8,                                   !- Maximum Dry-Bulb Temperature {C}
  13.7,                                   !- Daily Dry-Bulb Temperature Range {deltaC}
  22,                                     !- Humidity Indicating Conditions at Maximum Dry-Bulb
  100248,                                 !- Barometric Pressure {Pa}
  3.4,                                    !- Wind Speed {m/s}
  320,                                    !- Wind Direction {deg}
  0,                                      !- Sky Clearness
  0,                                      !- Rain Indicator
  0,                                      !- Snow Indicator
  21,                                     !- Day of Month
  4,                                      !- Month
  SummerDesignDay,                        !- Day Type
  0,                                      !- Daylight Saving Time Indicator
  Wetbulb,                                !- Humidity Indicating Type
  ,                                       !- Humidity Indicating Day Schedule Name
  DefaultMultipliers,                     !- Dry-Bulb Temperature Range Modifier Type
  ,                                       !- Dry-Bulb Temperature Range Modifier Schedule Name
  ASHRAETau,                              !- Solar Model Indicator
  ,                                       !- Beam Solar Day Schedule Name
  ,                                       !- Diffuse Solar Day Schedule Name
  0.389,                                  !- ASHRAE Taub {dimensionless}
  2.319;                                  !- ASHRAE Taud {dimensionless}

OS:SizingPeriod:DesignDay,
  {1477b846-7cfd-4095-b16a-9ffdb774bc24}, !- Handle
  Robins Afb August .4% Condns DB=>MCWB 1, !- Name
  37.7,                                   !- Maximum Dry-Bulb Temperature {C}
  10.9,                                   !- Daily Dry-Bulb Temperature Range {deltaC}
  25.2,                                   !- Humidity Indicating Conditions at Maximum Dry-Bulb
  100248,                                 !- Barometric Pressure {Pa}
  3.4,                                    !- Wind Speed {m/s}
  320,                                    !- Wind Direction {deg}
  0,                                      !- Sky Clearness
  0,                                      !- Rain Indicator
  0,                                      !- Snow Indicator
  21,                                     !- Day of Month
  8,                                      !- Month
  SummerDesignDay,                        !- Day Type
  0,                                      !- Daylight Saving Time Indicator
  Wetbulb,                                !- Humidity Indicating Type
  ,                                       !- Humidity Indicating Day Schedule Name
  DefaultMultipliers,                     !- Dry-Bulb Temperature Range Modifier Type
  ,                                       !- Dry-Bulb Temperature Range Modifier Schedule Name
  ASHRAETau,                              !- Solar Model Indicator
  ,                                       !- Beam Solar Day Schedule Name
  ,                                       !- Diffuse Solar Day Schedule Name
  0.428,                                  !- ASHRAE Taub {dimensionless}
  2.288;                                  !- ASHRAE Taud {dimensionless}

OS:SizingPeriod:DesignDay,
  {f9c9ee7c-b9dc-4889-b0de-059391ceda5c}, !- Handle
  Robins Afb August .4% Condns WB=>MCDB 1, !- Name
  33.4,                                   !- Maximum Dry-Bulb Temperature {C}
  10.9,                                   !- Daily Dry-Bulb Temperature Range {deltaC}
  27.3,                                   !- Humidity Indicating Conditions at Maximum Dry-Bulb
  100248,                                 !- Barometric Pressure {Pa}
  3.4,                                    !- Wind Speed {m/s}
  320,                                    !- Wind Direction {deg}
  0,                                      !- Sky Clearness
  0,                                      !- Rain Indicator
  0,                                      !- Snow Indicator
  21,                                     !- Day of Month
  8,                                      !- Month
  SummerDesignDay,                        !- Day Type
  0,                                      !- Daylight Saving Time Indicator
  Wetbulb,                                !- Humidity Indicating Type
  ,                                       !- Humidity Indicating Day Schedule Name
  DefaultMultipliers,                     !- Dry-Bulb Temperature Range Modifier Type
  ,                                       !- Dry-Bulb Temperature Range Modifier Schedule Name
  ASHRAETau,                              !- Solar Model Indicator
  ,                                       !- Beam Solar Day Schedule Name
  ,                                       !- Diffuse Solar Day Schedule Name
  0.428,                                  !- ASHRAE Taub {dimensionless}
  2.288;                                  !- ASHRAE Taud {dimensionless}

OS:SizingPeriod:DesignDay,
  {f5f2e9e3-aa06-47b9-8e1e-6bec52126d8d}, !- Handle
  Robins Afb December .4% Condns DB=>MCWB 1, !- Name
  25.9,                                   !- Maximum Dry-Bulb Temperature {C}
  12.7,                                   !- Daily Dry-Bulb Temperature Range {deltaC}
  19.1,                                   !- Humidity Indicating Conditions at Maximum Dry-Bulb
  100248,                                 !- Barometric Pressure {Pa}
  3.4,                                    !- Wind Speed {m/s}
  320,                                    !- Wind Direction {deg}
  0,                                      !- Sky Clearness
  0,                                      !- Rain Indicator
  0,                                      !- Snow Indicator
  21,                                     !- Day of Month
  12,                                     !- Month
  SummerDesignDay,                        !- Day Type
  0,                                      !- Daylight Saving Time Indicator
  Wetbulb,                                !- Humidity Indicating Type
  ,                                       !- Humidity Indicating Day Schedule Name
  DefaultMultipliers,                     !- Dry-Bulb Temperature Range Modifier Type
  ,                                       !- Dry-Bulb Temperature Range Modifier Schedule Name
  ASHRAETau,                              !- Solar Model Indicator
  ,                                       !- Beam Solar Day Schedule Name
  ,                                       !- Diffuse Solar Day Schedule Name
  0.343,                                  !- ASHRAE Taub {dimensionless}
  2.612;                                  !- ASHRAE Taud {dimensionless}

OS:SizingPeriod:DesignDay,
  {2cae5b9b-b2ef-4347-b884-09c4f54ac9fe}, !- Handle
  Robins Afb December .4% Condns WB=>MCDB 1, !- Name
  22.8,                                   !- Maximum Dry-Bulb Temperature {C}
  12.7,                                   !- Daily Dry-Bulb Temperature Range {deltaC}
  20.8,                                   !- Humidity Indicating Conditions at Maximum Dry-Bulb
  100248,                                 !- Barometric Pressure {Pa}
  3.4,                                    !- Wind Speed {m/s}
  320,                                    !- Wind Direction {deg}
  0,                                      !- Sky Clearness
  0,                                      !- Rain Indicator
  0,                                      !- Snow Indicator
  21,                                     !- Day of Month
  12,                                     !- Month
  SummerDesignDay,                        !- Day Type
  0,                                      !- Daylight Saving Time Indicator
  Wetbulb,                                !- Humidity Indicating Type
  ,                                       !- Humidity Indicating Day Schedule Name
  DefaultMultipliers,                     !- Dry-Bulb Temperature Range Modifier Type
  ,                                       !- Dry-Bulb Temperature Range Modifier Schedule Name
  ASHRAETau,                              !- Solar Model Indicator
  ,                                       !- Beam Solar Day Schedule Name
  ,                                       !- Diffuse Solar Day Schedule Name
  0.343,                                  !- ASHRAE Taub {dimensionless}
  2.612;                                  !- ASHRAE Taud {dimensionless}

OS:SizingPeriod:DesignDay,
  {0ed7c8b6-ffaf-4592-a13a-f04fd79ba384}, !- Handle
  Robins Afb February .4% Condns DB=>MCWB 1, !- Name
  24.9,                                   !- Maximum Dry-Bulb Temperature {C}
  13,                                     !- Daily Dry-Bulb Temperature Range {deltaC}
  16.4,                                   !- Humidity Indicating Conditions at Maximum Dry-Bulb
  100248,                                 !- Barometric Pressure {Pa}
  3.4,                                    !- Wind Speed {m/s}
  320,                                    !- Wind Direction {deg}
  0,                                      !- Sky Clearness
  0,                                      !- Rain Indicator
  0,                                      !- Snow Indicator
  21,                                     !- Day of Month
  2,                                      !- Month
  SummerDesignDay,                        !- Day Type
  0,                                      !- Daylight Saving Time Indicator
  Wetbulb,                                !- Humidity Indicating Type
  ,                                       !- Humidity Indicating Day Schedule Name
  DefaultMultipliers,                     !- Dry-Bulb Temperature Range Modifier Type
  ,                                       !- Dry-Bulb Temperature Range Modifier Schedule Name
  ASHRAETau,                              !- Solar Model Indicator
  ,                                       !- Beam Solar Day Schedule Name
  ,                                       !- Diffuse Solar Day Schedule Name
  0.335,                                  !- ASHRAE Taub {dimensionless}
  2.583;                                  !- ASHRAE Taud {dimensionless}

OS:SizingPeriod:DesignDay,
  {d7d36215-a0b6-4be4-87b4-8489e81634a9}, !- Handle
  Robins Afb February .4% Condns WB=>MCDB 1, !- Name
  22.5,                                   !- Maximum Dry-Bulb Temperature {C}
  13,                                     !- Daily Dry-Bulb Temperature Range {deltaC}
  19.5,                                   !- Humidity Indicating Conditions at Maximum Dry-Bulb
  100248,                                 !- Barometric Pressure {Pa}
  3.4,                                    !- Wind Speed {m/s}
  320,                                    !- Wind Direction {deg}
  0,                                      !- Sky Clearness
  0,                                      !- Rain Indicator
  0,                                      !- Snow Indicator
  21,                                     !- Day of Month
  2,                                      !- Month
  SummerDesignDay,                        !- Day Type
  0,                                      !- Daylight Saving Time Indicator
  Wetbulb,                                !- Humidity Indicating Type
  ,                                       !- Humidity Indicating Day Schedule Name
  DefaultMultipliers,                     !- Dry-Bulb Temperature Range Modifier Type
  ,                                       !- Dry-Bulb Temperature Range Modifier Schedule Name
  ASHRAETau,                              !- Solar Model Indicator
  ,                                       !- Beam Solar Day Schedule Name
  ,                                       !- Diffuse Solar Day Schedule Name
  0.335,                                  !- ASHRAE Taub {dimensionless}
  2.583;                                  !- ASHRAE Taud {dimensionless}

OS:SizingPeriod:DesignDay,
  {5b1cb95b-1c5f-4f74-9523-6e73428f6eaa}, !- Handle
  Robins Afb January .4% Condns DB=>MCWB 1, !- Name
  23.7,                                   !- Maximum Dry-Bulb Temperature {C}
  12.2,                                   !- Daily Dry-Bulb Temperature Range {deltaC}
  18.1,                                   !- Humidity Indicating Conditions at Maximum Dry-Bulb
  100248,                                 !- Barometric Pressure {Pa}
  3.4,                                    !- Wind Speed {m/s}
  320,                                    !- Wind Direction {deg}
  0,                                      !- Sky Clearness
  0,                                      !- Rain Indicator
  0,                                      !- Snow Indicator
  21,                                     !- Day of Month
  1,                                      !- Month
  SummerDesignDay,                        !- Day Type
  0,                                      !- Daylight Saving Time Indicator
  Wetbulb,                                !- Humidity Indicating Type
  ,                                       !- Humidity Indicating Day Schedule Name
  DefaultMultipliers,                     !- Dry-Bulb Temperature Range Modifier Type
  ,                                       !- Dry-Bulb Temperature Range Modifier Schedule Name
  ASHRAETau,                              !- Solar Model Indicator
  ,                                       !- Beam Solar Day Schedule Name
  ,                                       !- Diffuse Solar Day Schedule Name
  0.342,                                  !- ASHRAE Taub {dimensionless}
  2.608;                                  !- ASHRAE Taud {dimensionless}

OS:SizingPeriod:DesignDay,
  {4238ca85-9a24-4d40-b2c5-cdb4d3fe8ba7}, !- Handle
  Robins Afb January .4% Condns WB=>MCDB 1, !- Name
  22.1,                                   !- Maximum Dry-Bulb Temperature {C}
  12.2,                                   !- Daily Dry-Bulb Temperature Range {deltaC}
  19.5,                                   !- Humidity Indicating Conditions at Maximum Dry-Bulb
  100248,                                 !- Barometric Pressure {Pa}