
OS:Version,
  {a7cae989-8a55-46dd-bcda-6afe0efb8445}, !- Handle
  2.8.1;                                  !- Version Identifier

OS:WeatherFile,
  {fc996ce9-7bbc-4847-8f8a-9f7bfe3144df}, !- Handle
  Columbia Metro,                         !- City
  SC,                                     !- State Province Region
  USA,                                    !- Country
  customized weather file,                !- Data Source
  723100,                                 !- WMO Number
  33.94,                                  !- Latitude {deg}
  -81.12,                                 !- Longitude {deg}
  -5,                                     !- Time Zone {hr}
  69,                                     !- Elevation {m}
  file:////weather/USA_SC_Columbia.Metro.723100_2012.epw, !- Url
  226BE93E;                               !- Checksum

OS:RunPeriodControl:DaylightSavingTime,
  {797bb520-8ca9-4b5a-b20a-343f66b55934}, !- Handle
  2nd Sunday in March,                    !- Start Date
  1st Sunday in November;                 !- End Date

OS:YearDescription,
  {b9ae666f-5768-437f-b8d4-99acb3dcf9d8}, !- Handle
  2016,                                   !- Calendar Year
  ,                                       !- Day of Week for Start Day
  ;                                       !- Is Leap Year

OS:Timestep,
  {f5bf035d-46f8-4d9a-8a93-5cafb9c2e2f4}, !- Handle
  4;                                      !- Number of Timesteps per Hour

OS:RunPeriod,
  {584f759e-1147-4c5f-ad99-d3a8c285ec31}, !- Handle
  Run Period 1,                           !- Name
  1,                                      !- Begin Month
  1,                                      !- Begin Day of Month
  12,                                     !- End Month
  30,                                     !- End Day of Month
  ,                                       !- Use Weather File Holidays and Special Days
  ,                                       !- Use Weather File Daylight Saving Period
  ,                                       !- Apply Weekend Holiday Rule
  ,                                       !- Use Weather File Rain Indicators
  ,                                       !- Use Weather File Snow Indicators
  ;                                       !- Number of Times Runperiod to be Repeated

OS:Site,
  {152e7d79-2081-4d19-a6b8-394ddffd4859}, !- Handle
  Columbia Metro_SC_USA,                  !- Name
  33.94,                                  !- Latitude {deg}
  -81.12,                                 !- Longitude {deg}
  -5,                                     !- Time Zone {hr}
  69,                                     !- Elevation {m}
  City;                                   !- Terrain

OS:Site:WaterMainsTemperature,
  {3195f6da-03cd-48c5-ad3f-2a4ca3eaee0c}, !- Handle
  Correlation,                            !- Calculation Method
  ,                                       !- Temperature Schedule Name
  18.9166666666667,                       !- Annual Average Outdoor Air Temperature {C}
  18.9;                                   !- Maximum Difference In Monthly Average Outdoor Air Temperatures {deltaC}

OS:SizingPeriod:DesignDay,
  {18876d12-c05f-4be1-9248-7bc0ffd35f52}, !- Handle
  Columbia Metro Ann Clg .4% Condns DB=>MWB 1, !- Name
  36.2,                                   !- Maximum Dry-Bulb Temperature {C}
  11.1,                                   !- Daily Dry-Bulb Temperature Range {deltaC}
  24,                                     !- Humidity Indicating Conditions at Maximum Dry-Bulb
  100499,                                 !- Barometric Pressure {Pa}
  4,                                      !- Wind Speed {m/s}
  240,                                    !- Wind Direction {deg}
  0,                                      !- Sky Clearness
  0,                                      !- Rain Indicator
  0,                                      !- Snow Indicator
  21,                                     !- Day of Month
  7,                                      !- Month
  SummerDesignDay,                        !- Day Type
  0,                                      !- Daylight Saving Time Indicator
  Wetbulb,                                !- Humidity Indicating Type
  ,                                       !- Humidity Indicating Day Schedule Name
  DefaultMultipliers,                     !- Dry-Bulb Temperature Range Modifier Type
  ,                                       !- Dry-Bulb Temperature Range Modifier Schedule Name
  ASHRAETau,                              !- Solar Model Indicator
  ,                                       !- Beam Solar Day Schedule Name
  ,                                       !- Diffuse Solar Day Schedule Name
  0.445,                                  !- ASHRAE Taub {dimensionless}
  2.193;                                  !- ASHRAE Taud {dimensionless}

OS:SizingPeriod:DesignDay,
  {648c411a-50f2-474c-8a9d-5b4f36ccad08}, !- Handle
  Columbia Metro Ann Clg .4% Condns WB=>MDB 1, !- Name
  32.2,                                   !- Maximum Dry-Bulb Temperature {C}
  11.1,                                   !- Daily Dry-Bulb Temperature Range {deltaC}
  25.8,                                   !- Humidity Indicating Conditions at Maximum Dry-Bulb
  100499,                                 !- Barometric Pressure {Pa}
  4,                                      !- Wind Speed {m/s}
  240,                                    !- Wind Direction {deg}
  0,                                      !- Sky Clearness
  0,                                      !- Rain Indicator
  0,                                      !- Snow Indicator
  21,                                     !- Day of Month
  7,                                      !- Month
  SummerDesignDay,                        !- Day Type
  0,                                      !- Daylight Saving Time Indicator
  Wetbulb,                                !- Humidity Indicating Type
  ,                                       !- Humidity Indicating Day Schedule Name
  DefaultMultipliers,                     !- Dry-Bulb Temperature Range Modifier Type
  ,                                       !- Dry-Bulb Temperature Range Modifier Schedule Name
  ASHRAETau,                              !- Solar Model Indicator
  ,                                       !- Beam Solar Day Schedule Name
  ,                                       !- Diffuse Solar Day Schedule Name
  0.445,                                  !- ASHRAE Taub {dimensionless}
  2.193;                                  !- ASHRAE Taud {dimensionless}

OS:SizingPeriod:DesignDay,
  {c8887b12-30d7-4366-9314-e74a7b7c84f3}, !- Handle
  Columbia Metro Ann Clg 1% Condns DB=>MWB 1, !- Name
  34.9,                                   !- Maximum Dry-Bulb Temperature {C}
  11.1,                                   !- Daily Dry-Bulb Temperature Range {deltaC}
  23.9,                                   !- Humidity Indicating Conditions at Maximum Dry-Bulb
  100499,                                 !- Barometric Pressure {Pa}
  4,                                      !- Wind Speed {m/s}
  240,                                    !- Wind Direction {deg}
  0,                                      !- Sky Clearness
  0,                                      !- Rain Indicator
  0,                                      !- Snow Indicator
  21,                                     !- Day of Month
  7,                                      !- Month
  SummerDesignDay,                        !- Day Type
  0,                                      !- Daylight Saving Time Indicator
  Wetbulb,                                !- Humidity Indicating Type
  ,                                       !- Humidity Indicating Day Schedule Name
  DefaultMultipliers,                     !- Dry-Bulb Temperature Range Modifier Type
  ,                                       !- Dry-Bulb Temperature Range Modifier Schedule Name
  ASHRAETau,                              !- Solar Model Indicator
  ,                                       !- Beam Solar Day Schedule Name
  ,                                       !- Diffuse Solar Day Schedule Name
  0.445,                                  !- ASHRAE Taub {dimensionless}
  2.193;                                  !- ASHRAE Taud {dimensionless}

OS:SizingPeriod:DesignDay,
  {cb01eb9a-2b52-4187-898b-8c3dbfce6721}, !- Handle
  Columbia Metro Ann Clg 2% Condns DP=>MDB 1, !- Name
  27,                                     !- Maximum Dry-Bulb Temperature {C}
  11.1,                                   !- Daily Dry-Bulb Temperature Range {deltaC}
  23.3,                                   !- Humidity Indicating Conditions at Maximum Dry-Bulb
  100499,                                 !- Barometric Pressure {Pa}
  4,                                      !- Wind Speed {m/s}
  240,                                    !- Wind Direction {deg}
  0,                                      !- Sky Clearness
  0,                                      !- Rain Indicator
  0,                                      !- Snow Indicator
  21,                                     !- Day of Month
  7,                                      !- Month
  SummerDesignDay,                        !- Day Type
  0,                                      !- Daylight Saving Time Indicator
  Dewpoint,                               !- Humidity Indicating Type
  ,                                       !- Humidity Indicating Day Schedule Name
  DefaultMultipliers,                     !- Dry-Bulb Temperature Range Modifier Type
  ,                                       !- Dry-Bulb Temperature Range Modifier Schedule Name
  ASHRAETau,                              !- Solar Model Indicator
  ,                                       !- Beam Solar Day Schedule Name
  ,                                       !- Diffuse Solar Day Schedule Name
  0.445,                                  !- ASHRAE Taub {dimensionless}
  2.193;                                  !- ASHRAE Taud {dimensionless}

OS:SizingPeriod:DesignDay,
  {64d084cf-7a84-4d46-a617-28bd0c421490}, !- Handle
  Columbia Metro Ann Htg 99% Condns DB 1, !- Name
  -3,                                     !- Maximum Dry-Bulb Temperature {C}
  0,                                      !- Daily Dry-Bulb Temperature Range {deltaC}
  -3,                                     !- Humidity Indicating Conditions at Maximum Dry-Bulb
  100499,                                 !- Barometric Pressure {Pa}
  1.7,                                    !- Wind Speed {m/s}
  260,                                    !- Wind Direction {deg}
  0,                                      !- Sky Clearness
  0,                                      !- Rain Indicator
  0,                                      !- Snow Indicator
  21,                                     !- Day of Month
  1,                                      !- Month
  WinterDesignDay,                        !- Day Type
  0,                                      !- Daylight Saving Time Indicator
  Wetbulb,                                !- Humidity Indicating Type
  ,                                       !- Humidity Indicating Day Schedule Name
  DefaultMultipliers,                     !- Dry-Bulb Temperature Range Modifier Type
  ,                                       !- Dry-Bulb Temperature Range Modifier Schedule Name
  ASHRAEClearSky;                         !- Solar Model Indicator

OS:SizingPeriod:DesignDay,
  {3c80678d-cca3-4ee7-a7b6-bc6a7308d1df}, !- Handle
  Columbia Metro Ann Htg 99.6% Condns DB 1, !- Name
  -5.1,                                   !- Maximum Dry-Bulb Temperature {C}
  0,                                      !- Daily Dry-Bulb Temperature Range {deltaC}
  -5.1,                                   !- Humidity Indicating Conditions at Maximum Dry-Bulb
  100499,                                 !- Barometric Pressure {Pa}
  1.7,                                    !- Wind Speed {m/s}
  260,                                    !- Wind Direction {deg}
  0,                                      !- Sky Clearness
  0,                                      !- Rain Indicator
  0,                                      !- Snow Indicator
  21,                                     !- Day of Month
  1,                                      !- Month
  WinterDesignDay,                        !- Day Type
  0,                                      !- Daylight Saving Time Indicator
  Wetbulb,                                !- Humidity Indicating Type
  ,                                       !- Humidity Indicating Day Schedule Name
  DefaultMultipliers,                     !- Dry-Bulb Temperature Range Modifier Type
  ,                                       !- Dry-Bulb Temperature Range Modifier Schedule Name
  ASHRAEClearSky;                         !- Solar Model Indicator

OS:SizingPeriod:DesignDay,
  {62bf7a62-f50d-4766-b06a-90126f895ba9}, !- Handle
  Columbia Metro Ann Htg Wind 99% Condns WS=>MCDB 1, !- Name
  12.1,                                   !- Maximum Dry-Bulb Temperature {C}
  0,                                      !- Daily Dry-Bulb Temperature Range {deltaC}
  12.1,                                   !- Humidity Indicating Conditions at Maximum Dry-Bulb
  100499,                                 !- Barometric Pressure {Pa}
  9.3,                                    !- Wind Speed {m/s}
  260,                                    !- Wind Direction {deg}
  0,                                      !- Sky Clearness
  0,                                      !- Rain Indicator
  0,                                      !- Snow Indicator
  21,                                     !- Day of Month
  1,                                      !- Month
  WinterDesignDay,                        !- Day Type
  0,                                      !- Daylight Saving Time Indicator
  Wetbulb,                                !- Humidity Indicating Type
  ,                                       !- Humidity Indicating Day Schedule Name
  DefaultMultipliers,                     !- Dry-Bulb Temperature Range Modifier Type
  ,                                       !- Dry-Bulb Temperature Range Modifier Schedule Name
  ASHRAEClearSky;                         !- Solar Model Indicator

OS:SizingPeriod:DesignDay,
  {c8593021-4a94-4f17-aa40-c45efb15f636}, !- Handle
  Columbia Metro April .4% Condns DB=>MCWB 1, !- Name
  32.2,                                   !- Maximum Dry-Bulb Temperature {C}
  13.6,                                   !- Daily Dry-Bulb Temperature Range {deltaC}
  19.5,                                   !- Humidity Indicating Conditions at Maximum Dry-Bulb
  100499,                                 !- Barometric Pressure {Pa}
  4,                                      !- Wind Speed {m/s}
  240,                                    !- Wind Direction {deg}
  0,                                      !- Sky Clearness
  0,                                      !- Rain Indicator
  0,                                      !- Snow Indicator
  21,                                     !- Day of Month
  4,                                      !- Month
  SummerDesignDay,                        !- Day Type
  0,                                      !- Daylight Saving Time Indicator
  Wetbulb,                                !- Humidity Indicating Type
  ,                                       !- Humidity Indicating Day Schedule Name
  DefaultMultipliers,                     !- Dry-Bulb Temperature Range Modifier Type
  ,                                       !- Dry-Bulb Temperature Range Modifier Schedule Name
  ASHRAETau,                              !- Solar Model Indicator
  ,                                       !- Beam Solar Day Schedule Name
  ,                                       !- Diffuse Solar Day Schedule Name
  0.388,                                  !- ASHRAE Taub {dimensionless}
  2.317;                                  !- ASHRAE Taud {dimensionless}

OS:SizingPeriod:DesignDay,
  {221a64de-433c-4f07-8c83-5d668f1a0adc}, !- Handle
  Columbia Metro April .4% Condns WB=>MCDB 1, !- Name
  27.6,                                   !- Maximum Dry-Bulb Temperature {C}
  13.6,                                   !- Daily Dry-Bulb Temperature Range {deltaC}
  21.9,                                   !- Humidity Indicating Conditions at Maximum Dry-Bulb
  100499,                                 !- Barometric Pressure {Pa}
  4,                                      !- Wind Speed {m/s}
  240,                                    !- Wind Direction {deg}
  0,                                      !- Sky Clearness
  0,                                      !- Rain Indicator
  0,                                      !- Snow Indicator
  21,                                     !- Day of Month
  4,                                      !- Month
  SummerDesignDay,                        !- Day Type
  0,                                      !- Daylight Saving Time Indicator
  Wetbulb,                                !- Humidity Indicating Type
  ,                                       !- Humidity Indicating Day Schedule Name
  DefaultMultipliers,                     !- Dry-Bulb Temperature Range Modifier Type
  ,                                       !- Dry-Bulb Temperature Range Modifier Schedule Name
  ASHRAETau,                              !- Solar Model Indicator
  ,                                       !- Beam Solar Day Schedule Name
  ,                                       !- Diffuse Solar Day Schedule Name
  0.388,                                  !- ASHRAE Taub {dimensionless}
  2.317;                                  !- ASHRAE Taud {dimensionless}

OS:SizingPeriod:DesignDay,
  {63d02545-77ea-4154-95e9-6a7106e64308}, !- Handle
  Columbia Metro August .4% Condns DB=>MCWB 1, !- Name
  37.6,                                   !- Maximum Dry-Bulb Temperature {C}
  10.3,                                   !- Daily Dry-Bulb Temperature Range {deltaC}
  24.3,                                   !- Humidity Indicating Conditions at Maximum Dry-Bulb
  100499,                                 !- Barometric Pressure {Pa}
  4,                                      !- Wind Speed {m/s}
  240,                                    !- Wind Direction {deg}
  0,                                      !- Sky Clearness
  0,                                      !- Rain Indicator
  0,                                      !- Snow Indicator
  21,                                     !- Day of Month
  8,                                      !- Month
  SummerDesignDay,                        !- Day Type
  0,                                      !- Daylight Saving Time Indicator
  Wetbulb,                                !- Humidity Indicating Type
  ,                                       !- Humidity Indicating Day Schedule Name
  DefaultMultipliers,                     !- Dry-Bulb Temperature Range Modifier Type
  ,                                       !- Dry-Bulb Temperature Range Modifier Schedule Name
  ASHRAETau,                              !- Solar Model Indicator
  ,                                       !- Beam Solar Day Schedule Name
  ,                                       !- Diffuse Solar Day Schedule Name
  0.431,                                  !- ASHRAE Taub {dimensionless}
  2.26;                                   !- ASHRAE Taud {dimensionless}

OS:SizingPeriod:DesignDay,
  {18796441-ee5b-4756-82c3-cb10fef1370e}, !- Handle
  Columbia Metro August .4% Condns WB=>MCDB 1, !- Name
  32.9,                                   !- Maximum Dry-Bulb Temperature {C}
  10.3,                                   !- Daily Dry-Bulb Temperature Range {deltaC}
  26.6,                                   !- Humidity Indicating Conditions at Maximum Dry-Bulb
  100499,                                 !- Barometric Pressure {Pa}
  4,                                      !- Wind Speed {m/s}
  240,                                    !- Wind Direction {deg}
  0,                                      !- Sky Clearness
  0,                                      !- Rain Indicator
  0,                                      !- Snow Indicator
  21,                                     !- Day of Month
  8,                                      !- Month
  SummerDesignDay,                        !- Day Type
  0,                                      !- Daylight Saving Time Indicator
  Wetbulb,                                !- Humidity Indicating Type
  ,                                       !- Humidity Indicating Day Schedule Name
  DefaultMultipliers,                     !- Dry-Bulb Temperature Range Modifier Type
  ,                                       !- Dry-Bulb Temperature Range Modifier Schedule Name
  ASHRAETau,                              !- Solar Model Indicator
  ,                                       !- Beam Solar Day Schedule Name
  ,                                       !- Diffuse Solar Day Schedule Name
  0.431,                                  !- ASHRAE Taub {dimensionless}
  2.26;                                   !- ASHRAE Taud {dimensionless}

OS:SizingPeriod:DesignDay,
  {1ec7bbf5-b0ee-455f-8594-864c93e25f41}, !- Handle
  Columbia Metro December .4% Condns DB=>MCWB 1, !- Name
  24.8,                                   !- Maximum Dry-Bulb Temperature {C}
  11.9,                                   !- Daily Dry-Bulb Temperature Range {deltaC}
  18.4,                                   !- Humidity Indicating Conditions at Maximum Dry-Bulb
  100499,                                 !- Barometric Pressure {Pa}
  4,                                      !- Wind Speed {m/s}
  240,                                    !- Wind Direction {deg}
  0,                                      !- Sky Clearness
  0,                                      !- Rain Indicator
  0,                                      !- Snow Indicator
  21,                                     !- Day of Month
  12,                                     !- Month
  SummerDesignDay,                        !- Day Type
  0,                                      !- Daylight Saving Time Indicator
  Wetbulb,                                !- Humidity Indicating Type
  ,                                       !- Humidity Indicating Day Schedule Name
  DefaultMultipliers,                     !- Dry-Bulb Temperature Range Modifier Type
  ,                                       !- Dry-Bulb Temperature Range Modifier Schedule Name
  ASHRAETau,                              !- Solar Model Indicator
  ,                                       !- Beam Solar Day Schedule Name
  ,                                       !- Diffuse Solar Day Schedule Name
  0.341,                                  !- ASHRAE Taub {dimensionless}
  2.608;                                  !- ASHRAE Taud {dimensionless}

OS:SizingPeriod:DesignDay,
  {27370fc9-ee63-4a5d-a8ad-8a8d128363f3}, !- Handle
  Columbia Metro December .4% Condns WB=>MCDB 1, !- Name
  22.4,                                   !- Maximum Dry-Bulb Temperature {C}
  11.9,                                   !- Daily Dry-Bulb Temperature Range {deltaC}
  19.9,                                   !- Humidity Indicating Conditions at Maximum Dry-Bulb
  100499,                                 !- Barometric Pressure {Pa}
  4,                                      !- Wind Speed {m/s}
  240,                                    !- Wind Direction {deg}
  0,                                      !- Sky Clearness
  0,                                      !- Rain Indicator
  0,                                      !- Snow Indicator
  21,                                     !- Day of Month
  12,                                     !- Month
  SummerDesignDay,                        !- Day Type
  0,                                      !- Daylight Saving Time Indicator
  Wetbulb,                                !- Humidity Indicating Type
  ,                                       !- Humidity Indicating Day Schedule Name
  DefaultMultipliers,                     !- Dry-Bulb Temperature Range Modifier Type
  ,                                       !- Dry-Bulb Temperature Range Modifier Schedule Name
  ASHRAETau,                              !- Solar Model Indicator
  ,                                       !- Beam Solar Day Schedule Name
  ,                                       !- Diffuse Solar Day Schedule Name
  0.341,                                  !- ASHRAE Taub {dimensionless}
  2.608;                                  !- ASHRAE Taud {dimensionless}

OS:SizingPeriod:DesignDay,
  {80d56526-4993-4a4c-8e5c-747d70923d31}, !- Handle
  Columbia Metro February .4% Condns DB=>MCWB 1, !- Name
  26,                                     !- Maximum Dry-Bulb Temperature {C}
  12.2,                                   !- Daily Dry-Bulb Temperature Range {deltaC}
  18.4,                                   !- Humidity Indicating Conditions at Maximum Dry-Bulb
  100499,                                 !- Barometric Pressure {Pa}
  4,                                      !- Wind Speed {m/s}
  240,                                    !- Wind Direction {deg}
  0,                                      !- Sky Clearness
  0,                                      !- Rain Indicator
  0,                                      !- Snow Indicator
  21,                                     !- Day of Month
  2,                                      !- Month
  SummerDesignDay,                        !- Day Type
  0,                                      !- Daylight Saving Time Indicator
  Wetbulb,                                !- Humidity Indicating Type
  ,                                       !- Humidity Indicating Day Schedule Name
  DefaultMultipliers,                     !- Dry-Bulb Temperature Range Modifier Type
  ,                                       !- Dry-Bulb Temperature Range Modifier Schedule Name
  ASHRAETau,                              !- Solar Model Indicator
  ,                                       !- Beam Solar Day Schedule Name
  ,                                       !- Diffuse Solar Day Schedule Name
  0.35,                                   !- ASHRAE Taub {dimensionless}
  2.526;                                  !- ASHRAE Taud {dimensionless}

OS:SizingPeriod:DesignDay,
  {69cc59bd-9abe-49d7-b370-cd58ea1db5e3}, !- Handle
  Columbia Metro February .4% Condns WB=>MCDB 1, !- Name
  24.2,                                   !- Maximum Dry-Bulb Temperature {C}
  12.2,                                   !- Daily Dry-Bulb Temperature Range {deltaC}
  19.4,                                   !- Humidity Indicating Conditions at Maximum Dry-Bulb
  100499,                                 !- Barometric Pressure {Pa}
  4,                                      !- Wind Speed {m/s}
  240,                                    !- Wind Direction {deg}
  0,                                      !- Sky Clearness
  0,                                      !- Rain Indicator
  0,                                      !- Snow Indicator
  21,                                     !- Day of Month
  2,                                      !- Month
  SummerDesignDay,                        !- Day Type
  0,                                      !- Daylight Saving Time Indicator
  Wetbulb,                                !- Humidity Indicating Type
  ,                                       !- Humidity Indicating Day Schedule Name
  DefaultMultipliers,                     !- Dry-Bulb Temperature Range Modifier Type
  ,                                       !- Dry-Bulb Temperature Range Modifier Schedule Name
  ASHRAETau,                              !- Solar Model Indicator
  ,                                       !- Beam Solar Day Schedule Name
  ,                                       !- Diffuse Solar Day Schedule Name
  0.35,                                   !- ASHRAE Taub {dimensionless}
  2.526;                                  !- ASHRAE Taud {dimensionless}

OS:SizingPeriod:DesignDay,
  {6a31c26a-d96f-4168-a1bc-503b8d8f7b55}, !- Handle
  Columbia Metro January .4% Condns DB=>MCWB 1, !- Name
  23.3,                                   !- Maximum Dry-Bulb Temperature {C}
  11.7,                                   !- Daily Dry-Bulb Temperature Range {deltaC}
  17,                                     !- Humidity Indicating Conditions at Maximum Dry-Bulb
  100499,                                 !- Barometric Pressure {Pa}
  4,                                      !- Wind Speed {m/s}
  240,                                    !- Wind Direction {deg}
  0,                                      !- Sky Clearness
  0,                                      !- Rain Indicator
  0,                                      !- Snow Indicator
  21,                                     !- Day of Month
  1,                                      !- Month
  SummerDesignDay,                        !- Day Type
  0,                                      !- Daylight Saving Time Indicator
  Wetbulb,                                !- Humidity Indicating Type
  ,                                       !- Humidity Indicating Day Schedule Name
  DefaultMultipliers,                     !- Dry-Bulb Temperature Range Modifier Type
  ,                                       !- Dry-Bulb Temperature Range Modifier Schedule Name
  ASHRAETau,                              !- Solar Model Indicator
  ,                                       !- Beam Solar Day Schedule Name
  ,                                       !- Diffuse Solar Day Schedule Name
  0.339,                                  !- ASHRAE Taub {dimensionless}
  2.603;                                  !- ASHRAE Taud {dimensionless}

OS:SizingPeriod:DesignDay,
  {c0095760-28eb-468f-86e3-dc59e8362bfa}, !- Handle
  Columbia Metro January .4% Condns WB=>MCDB 1, !- Name
  21.5,                                   !- Maximum Dry-Bulb Temperature {C}
  11.7,                                   !- Daily Dry-Bulb Temperature Range {deltaC}
  19.1,                                   !- Humidity Indicating Conditions at Maximum Dry-Bulb