
OS:Version,
  {ced9c8f5-2461-4101-8851-f8151e043f2f}, !- Handle
  2.7.1;                                  !- Version Identifier

OS:WeatherFile,
  {e335264d-1ebc-483b-afc5-b465b02e4fbd}, !- Handle
  CA_LOS-ANGELES-DOWNTOWN-,               !- City
  -,                                      !- State Province Region
  USA,                                    !- Country
  Custom-722874,                          !- Data Source
  722874,                                 !- WMO Number
  34.03,                                  !- Latitude {deg}
  -118.3,                                 !- Longitude {deg}
  -8,                                     !- Time Zone {hr}
  56,                                     !- Elevation {m}
  file:////weather/CA_LOS-ANGELES-DOWNTOWN-USC_722874S_12.epw, !- Url
  288AE598;                               !- Checksum

OS:RunPeriodControl:DaylightSavingTime,
  {96bb2cbb-41b1-4e08-bed6-4705b8f55e9b}, !- Handle
  2nd Sunday in March,                    !- Start Date
  1st Sunday in November;                 !- End Date

OS:YearDescription,
  {739e7653-c00a-4069-b241-f5f0e5addd3e}, !- Handle
  2015,                                   !- Calendar Year
  ,                                       !- Day of Week for Start Day
  ;                                       !- Is Leap Year

OS:Timestep,
  {b1a1cbdd-beb7-460a-a156-4453489411df}, !- Handle
  4;                                      !- Number of Timesteps per Hour

OS:RunPeriod,
  {14b79f95-850d-47ae-8289-3b3d3487aab4}, !- Handle
  Run Period 1,                           !- Name
  1,                                      !- Begin Month
  1,                                      !- Begin Day of Month
  12,                                     !- End Month
  30,                                     !- End Day of Month
  ,                                       !- Use Weather File Holidays and Special Days
  ,                                       !- Use Weather File Daylight Saving Period
  ,                                       !- Apply Weekend Holiday Rule
  ,                                       !- Use Weather File Rain Indicators
  ,                                       !- Use Weather File Snow Indicators
  ;                                       !- Number of Times Runperiod to be Repeated

OS:Site,
  {1c90bf58-93dd-46a3-bdfc-e86d2bce7ec4}, !- Handle
  CA_LOS-ANGELES-DOWNTOWN-_-_USA,         !- Name
  34.03,                                  !- Latitude {deg}
  -118.3,                                 !- Longitude {deg}
  -8,                                     !- Time Zone {hr}
  56,                                     !- Elevation {m}
  City;                                   !- Terrain

OS:Site:WaterMainsTemperature,
  {0fb636ff-381f-4a6d-bef0-3e1d5b0179bc}, !- Handle
  Correlation,                            !- Calculation Method
  ,                                       !- Temperature Schedule Name
  17.9083333333333,                       !- Annual Average Outdoor Air Temperature {C}
  10.6;                                   !- Maximum Difference In Monthly Average Outdoor Air Temperatures {deltaC}

OS:SizingPeriod:DesignDay,
  {839900f1-f92c-4b88-bf14-4a81f819f957}, !- Handle
  CA_LOS-ANGELES-DOWNTOWN- Ann Clg .4% Condns DB=>MWB 1, !- Name
  32.8,                                   !- Maximum Dry-Bulb Temperature {C}
  9.7,                                    !- Daily Dry-Bulb Temperature Range {deltaC}
  18.9,                                   !- Humidity Indicating Conditions at Maximum Dry-Bulb
  100654,                                 !- Barometric Pressure {Pa}
  1.5,                                    !- Wind Speed {m/s}
  0,                                      !- Wind Direction {deg}
  0,                                      !- Sky Clearness
  0,                                      !- Rain Indicator
  0,                                      !- Snow Indicator
  21,                                     !- Day of Month
  8,                                      !- Month
  SummerDesignDay,                        !- Day Type
  0,                                      !- Daylight Saving Time Indicator
  Wetbulb,                                !- Humidity Indicating Type
  ,                                       !- Humidity Indicating Day Schedule Name
  DefaultMultipliers,                     !- Dry-Bulb Temperature Range Modifier Type
  ,                                       !- Dry-Bulb Temperature Range Modifier Schedule Name
  ASHRAETau,                              !- Solar Model Indicator
  ,                                       !- Beam Solar Day Schedule Name
  ,                                       !- Diffuse Solar Day Schedule Name
  0.361,                                  !- ASHRAE Taub {dimensionless}
  2.436;                                  !- ASHRAE Taud {dimensionless}

OS:SizingPeriod:DesignDay,
  {fba702da-f4b2-49ee-9b44-37b0ea11edb1}, !- Handle
  CA_LOS-ANGELES-DOWNTOWN- Ann Clg .4% Condns WB=>MDB 1, !- Name
  29.2,                                   !- Maximum Dry-Bulb Temperature {C}
  9.7,                                    !- Daily Dry-Bulb Temperature Range {deltaC}
  22,                                     !- Humidity Indicating Conditions at Maximum Dry-Bulb
  100654,                                 !- Barometric Pressure {Pa}
  1.5,                                    !- Wind Speed {m/s}
  0,                                      !- Wind Direction {deg}
  0,                                      !- Sky Clearness
  0,                                      !- Rain Indicator
  0,                                      !- Snow Indicator
  21,                                     !- Day of Month
  8,                                      !- Month
  SummerDesignDay,                        !- Day Type
  0,                                      !- Daylight Saving Time Indicator
  Wetbulb,                                !- Humidity Indicating Type
  ,                                       !- Humidity Indicating Day Schedule Name
  DefaultMultipliers,                     !- Dry-Bulb Temperature Range Modifier Type
  ,                                       !- Dry-Bulb Temperature Range Modifier Schedule Name
  ASHRAETau,                              !- Solar Model Indicator
  ,                                       !- Beam Solar Day Schedule Name
  ,                                       !- Diffuse Solar Day Schedule Name
  0.361,                                  !- ASHRAE Taub {dimensionless}
  2.436;                                  !- ASHRAE Taud {dimensionless}

OS:SizingPeriod:DesignDay,
  {e0fa011d-8ebd-4e29-9e7c-0f053aad31a3}, !- Handle
  CA_LOS-ANGELES-DOWNTOWN- Ann Htg 99.6% Condns DB 1, !- Name
  6.2,                                    !- Maximum Dry-Bulb Temperature {C}
  0,                                      !- Daily Dry-Bulb Temperature Range {deltaC}
  6.2,                                    !- Humidity Indicating Conditions at Maximum Dry-Bulb
  100654,                                 !- Barometric Pressure {Pa}
  0.2,                                    !- Wind Speed {m/s}
  0,                                      !- Wind Direction {deg}
  0,                                      !- Sky Clearness
  0,                                      !- Rain Indicator
  0,                                      !- Snow Indicator
  21,                                     !- Day of Month
  12,                                     !- Month
  WinterDesignDay,                        !- Day Type
  0,                                      !- Daylight Saving Time Indicator
  Wetbulb,                                !- Humidity Indicating Type
  ,                                       !- Humidity Indicating Day Schedule Name
  DefaultMultipliers,                     !- Dry-Bulb Temperature Range Modifier Type
  ,                                       !- Dry-Bulb Temperature Range Modifier Schedule Name
  ASHRAEClearSky;                         !- Solar Model Indicator

OS:ClimateZones,
  {415b94e3-7b91-4776-b798-3407693d5a07}, !- Handle
  ,                                       !- Active Institution
  ,                                       !- Active Year
  CEC,                                    !- Climate Zone Institution Name 1
  California Climate Zone Descriptions,   !- Climate Zone Document Name 1
  1995,                                   !- Climate Zone Document Year 1
  8;                                      !- Climate Zone Value 1

OS:SpaceType,
  {3c805e54-2d67-493d-963a-6bfc024a9f5b}, !- Handle
  SCn WarehouseCond - DEER 1985,          !- Name
  ,                                       !- Default Construction Set Name
  {85929a42-4c9e-4b0e-861f-ccc0f2a391f7}, !- Default Schedule Set Name
  ,                                       !- Group Rendering Name
  {964217fe-a9cf-4713-9bd5-db97ed6c30f7}, !- Design Specification Outdoor Air Object Name
  ,                                       !- Standards Template
  SCn,                                    !- Standards Building Type
  WarehouseCond;                          !- Standards Space Type

OS:Building,
  {bd19cf80-3035-492a-8508-a52939c62ccd}, !- Handle
  DEER 1985|SCn,                          !- Name
  ,                                       !- Building Sector Type
  0,                                      !- North Axis {deg}
  ,                                       !- Nominal Floor to Floor Height {m}
  ,                                       !- Space Type Name
  {2b369810-5b2d-4f35-b9a1-f96d4472fcab}, !- Default Construction Set Name
  {534d3d50-53e6-4388-814f-3b7443a53b3f}, !- Default Schedule Set Name
  ,                                       !- Standards Number of Stories
  ,                                       !- Standards Number of Above Ground Stories
  ,                                       !- Standards Template
  SCn;                                    !- Standards Building Type

OS:BuildingStory,
  {a4c3b895-0189-4208-9cec-265af9dcec49}, !- Handle
  Story Ground,                           !- Name
  0,                                      !- Nominal Z Coordinate {m}
  6.096,                                  !- Nominal Floor to Floor Height {m}
  ,                                       !- Default Construction Set Name
  ,                                       !- Default Schedule Set Name
  ;                                       !- Group Rendering Name

OS:Space,
  {cd98ea13-5695-4f7e-ae60-4b0634d3bd9a}, !- Handle
  SCn WarehouseCond A end_a - Story Ground, !- Name
  {3c805e54-2d67-493d-963a-6bfc024a9f5b}, !- Space Type Name
  ,                                       !- Default Construction Set Name
  ,                                       !- Default Schedule Set Name
  -0,                                     !- Direction of Relative North {deg}
  -14.2557146436087,                      !- X Origin {m}
  -14.2557146436087,                      !- Y Origin {m}
  0,                                      !- Z Origin {m}
  {a4c3b895-0189-4208-9cec-265af9dcec49}, !- Building Story Name
  {bbac3845-05e5-481e-9da9-4f0fe2d1b22e}; !- Thermal Zone Name

OS:Surface,
  {4f4b6955-30bd-4f99-9eb9-01832e26bdcc}, !- Handle
  Surface 1,                              !- Name
  Floor,                                  !- Surface Type
  {2ca26908-5791-4d32-911b-08137868986e}, !- Construction Name
  {cd98ea13-5695-4f7e-ae60-4b0634d3bd9a}, !- Space Name
  Ground,                                 !- Outside Boundary Condition
  ,                                       !- Outside Boundary Condition Object
  NoSun,                                  !- Sun Exposure
  NoWind,                                 !- Wind Exposure
  ,                                       !- View Factor to Ground
  ,                                       !- Number of Vertices
  1.59872115546023e-14, 1.77635683940025e-14, 0, !- X,Y,Z Vertex 1 {m}
  1.59872115546023e-14, 4.572, 0,         !- X,Y,Z Vertex 2 {m}
  4.572, 4.572, 0,                        !- X,Y,Z Vertex 3 {m}
  4.572, 1.77635683940025e-14, 0;         !- X,Y,Z Vertex 4 {m}

OS:Surface,
  {7b80a234-53f3-485c-9604-f3a3ac138238}, !- Handle
  Surface 2,                              !- Name
  Wall,                                   !- Surface Type
  {2f65f976-7405-4d4f-b876-0ac30fef6b1f}, !- Construction Name
  {cd98ea13-5695-4f7e-ae60-4b0634d3bd9a}, !- Space Name
  Outdoors,                               !- Outside Boundary Condition
  ,                                       !- Outside Boundary Condition Object
  SunExposed,                             !- Sun Exposure
  WindExposed,                            !- Wind Exposure
  ,                                       !- View Factor to Ground
  ,                                       !- Number of Vertices
  1.59872115546023e-14, 4.572, 6.096,     !- X,Y,Z Vertex 1 {m}
  1.59872115546023e-14, 4.572, 0,         !- X,Y,Z Vertex 2 {m}
  1.59872115546023e-14, 1.77635683940025e-14, 0, !- X,Y,Z Vertex 3 {m}
  1.59872115546023e-14, 1.77635683940025e-14, 6.096; !- X,Y,Z Vertex 4 {m}

OS:Surface,
  {1606069d-5f2e-4a9b-864f-6f888687af0b}, !- Handle
  Surface 3,                              !- Name
  Wall,                                   !- Surface Type
  ,                                       !- Construction Name
  {cd98ea13-5695-4f7e-ae60-4b0634d3bd9a}, !- Space Name
  Surface,                                !- Outside Boundary Condition
  {d8272f11-8b15-4b46-9554-7ec61fc69398}, !- Outside Boundary Condition Object
  NoSun,                                  !- Sun Exposure
  NoWind,                                 !- Wind Exposure
  ,                                       !- View Factor to Ground
  ,                                       !- Number of Vertices
  4.572, 4.572, 6.096,                    !- X,Y,Z Vertex 1 {m}
  4.572, 4.572, 0,                        !- X,Y,Z Vertex 2 {m}
  1.59872115546023e-14, 4.572, 0,         !- X,Y,Z Vertex 3 {m}
  1.59872115546023e-14, 4.572, 6.096;     !- X,Y,Z Vertex 4 {m}

OS:Surface,
  {d3ac037d-86f2-498f-91a8-3fcb1a71fc19}, !- Handle
  Surface 4,                              !- Name
  Wall,                                   !- Surface Type
  ,                                       !- Construction Name
  {cd98ea13-5695-4f7e-ae60-4b0634d3bd9a}, !- Space Name
  Surface,                                !- Outside Boundary Condition
  {076b40cb-b9aa-486e-a06b-fb9daa4ece57}, !- Outside Boundary Condition Object
  NoSun,                                  !- Sun Exposure
  NoWind,                                 !- Wind Exposure
  ,                                       !- View Factor to Ground
  ,                                       !- Number of Vertices
  4.572, 1.77635683940025e-14, 6.096,     !- X,Y,Z Vertex 1 {m}
  4.572, 1.77635683940025e-14, 0,         !- X,Y,Z Vertex 2 {m}
  4.572, 4.572, 0,                        !- X,Y,Z Vertex 3 {m}
  4.572, 4.572, 6.096;                    !- X,Y,Z Vertex 4 {m}

OS:Surface,
  {201d82c8-7712-453e-8284-85dce658c1d5}, !- Handle
  Surface 5,                              !- Name
  Wall,                                   !- Surface Type
  {2f65f976-7405-4d4f-b876-0ac30fef6b1f}, !- Construction Name
  {cd98ea13-5695-4f7e-ae60-4b0634d3bd9a}, !- Space Name
  Outdoors,                               !- Outside Boundary Condition
  ,                                       !- Outside Boundary Condition Object
  SunExposed,                             !- Sun Exposure
  WindExposed,                            !- Wind Exposure
  ,                                       !- View Factor to Ground
  ,                                       !- Number of Vertices
  1.59872115546023e-14, 1.77635683940025e-14, 6.096, !- X,Y,Z Vertex 1 {m}
  1.59872115546023e-14, 1.77635683940025e-14, 0, !- X,Y,Z Vertex 2 {m}
  4.572, 1.77635683940025e-14, 0,         !- X,Y,Z Vertex 3 {m}
  4.572, 1.77635683940025e-14, 6.096;     !- X,Y,Z Vertex 4 {m}

OS:Surface,
  {95b1715a-1aa3-4bdf-917c-0a51c04f99cd}, !- Handle
  Surface 6,                              !- Name
  RoofCeiling,                            !- Surface Type
  ,                                       !- Construction Name
  {cd98ea13-5695-4f7e-ae60-4b0634d3bd9a}, !- Space Name
  Surface,                                !- Outside Boundary Condition
  {06ac8c0d-5b71-4d66-9d7c-913cba10fa3e}, !- Outside Boundary Condition Object
  NoSun,                                  !- Sun Exposure
  NoWind,                                 !- Wind Exposure
  ,                                       !- View Factor to Ground
  ,                                       !- Number of Vertices
  4.572, 1.77635683940025e-14, 6.096,     !- X,Y,Z Vertex 1 {m}
  4.572, 4.572, 6.096,                    !- X,Y,Z Vertex 2 {m}
  1.59872115546023e-14, 4.572, 6.096,     !- X,Y,Z Vertex 3 {m}
  1.59872115546023e-14, 1.77635683940025e-14, 6.096; !- X,Y,Z Vertex 4 {m}

OS:ThermalZone,
  {bbac3845-05e5-481e-9da9-4f0fe2d1b22e}, !- Handle
  Zone SCn WarehouseCond A end_a - Story Ground, !- Name
  1,                                      !- Multiplier
  ,                                       !- Ceiling Height {m}
  ,                                       !- Volume {m3}
  ,                                       !- Floor Area {m2}
  ,                                       !- Zone Inside Convection Algorithm
  ,                                       !- Zone Outside Convection Algorithm
  ,                                       !- Zone Conditioning Equipment List Name
  {82a601f8-7d67-4c1c-b5c8-83e8f2076702}, !- Zone Air Inlet Port List
  {cb7a25bb-4115-4629-b5ae-a3beecb9d1b5}, !- Zone Air Exhaust Port List
  {0806a0de-84f0-4f61-8dfc-3befe47466d0}, !- Zone Air Node Name
  {f18b684c-f501-46f5-ba9e-c467a31d0523}, !- Zone Return Air Port List
  ,                                       !- Primary Daylighting Control Name
  ,                                       !- Fraction of Zone Controlled by Primary Daylighting Control
  ,                                       !- Secondary Daylighting Control Name
  ,                                       !- Fraction of Zone Controlled by Secondary Daylighting Control
  ,                                       !- Illuminance Map Name
  ,                                       !- Group Rendering Name
  {f3862de3-159c-4f7a-9271-147664345f65}, !- Thermostat Name
  No;                                     !- Use Ideal Air Loads

OS:Node,
  {4fb0c9d1-13f2-49df-a386-66ac34c462d9}, !- Handle
  Zone SCn WarehouseCond A end_a - Story Ground Zone Air Node, !- Name
  {0806a0de-84f0-4f61-8dfc-3befe47466d0}, !- Inlet Port
  ;                                       !- Outlet Port

OS:Connection,
  {0806a0de-84f0-4f61-8dfc-3befe47466d0}, !- Handle
  {353f4a0a-a331-41fa-a035-e89798f99f10}, !- Name
  {bbac3845-05e5-481e-9da9-4f0fe2d1b22e}, !- Source Object
  11,                                     !- Outlet Port
  {4fb0c9d1-13f2-49df-a386-66ac34c462d9}, !- Target Object
  2;                                      !- Inlet Port

OS:PortList,
  {82a601f8-7d67-4c1c-b5c8-83e8f2076702}, !- Handle
  {5c7659a7-5bcd-442f-a92f-25e7323e8d99}, !- Name
  {bbac3845-05e5-481e-9da9-4f0fe2d1b22e}, !- HVAC Component
  {a3fdf648-98b3-4e56-a457-232316b8d55a}; !- Port 1

OS:PortList,
  {cb7a25bb-4115-4629-b5ae-a3beecb9d1b5}, !- Handle
  {d8782f74-ab4e-4073-829c-198cb79d3619}, !- Name
  {bbac3845-05e5-481e-9da9-4f0fe2d1b22e}; !- HVAC Component

OS:PortList,
  {f18b684c-f501-46f5-ba9e-c467a31d0523}, !- Handle
  {e493f18d-dbf7-4f5c-a0bc-214fdb36c722}, !- Name
  {bbac3845-05e5-481e-9da9-4f0fe2d1b22e}, !- HVAC Component
  {32b19959-d974-4166-975a-8d1f624fe4b2}; !- Port 1

OS:Sizing:Zone,
  {e98d387d-8548-4a3a-a591-f323d9041925}, !- Handle
  {bbac3845-05e5-481e-9da9-4f0fe2d1b22e}, !- Zone or ZoneList Name
  SupplyAirTemperature,                   !- Zone Cooling Design Supply Air Temperature Input Method
  14,                                     !- Zone Cooling Design Supply Air Temperature {C}
  11.11,                                  !- Zone Cooling Design Supply Air Temperature Difference {deltaC}
  SupplyAirTemperature,                   !- Zone Heating Design Supply Air Temperature Input Method
  40,                                     !- Zone Heating Design Supply Air Temperature {C}
  11.11,                                  !- Zone Heating Design Supply Air Temperature Difference {deltaC}
  0.0085,                                 !- Zone Cooling Design Supply Air Humidity Ratio {kg-H2O/kg-air}
  0.008,                                  !- Zone Heating Design Supply Air Humidity Ratio {kg-H2O/kg-air}
  ,                                       !- Zone Heating Sizing Factor
  ,                                       !- Zone Cooling Sizing Factor
  DesignDay,                              !- Cooling Design Air Flow Method
  ,                                       !- Cooling Design Air Flow Rate {m3/s}
  ,                                       !- Cooling Minimum Air Flow per Zone Floor Area {m3/s-m2}
  ,                                       !- Cooling Minimum Air Flow {m3/s}
  ,                                       !- Cooling Minimum Air Flow Fraction
  DesignDay,                              !- Heating Design Air Flow Method
  ,                                       !- Heating Design Air Flow Rate {m3/s}
  ,                                       !- Heating Maximum Air Flow per Zone Floor Area {m3/s-m2}
  ,                                       !- Heating Maximum Air Flow {m3/s}
  ,                                       !- Heating Maximum Air Flow Fraction
  ,                                       !- Design Zone Air Distribution Effectiveness in Cooling Mode
  ,                                       !- Design Zone Air Distribution Effectiveness in Heating Mode
  No,                                     !- Account for Dedicated Outdoor Air System
  NeutralSupplyAir,                       !- Dedicated Outdoor Air System Control Strategy
  autosize,                               !- Dedicated Outdoor Air Low Setpoint Temperature for Design {C}
  autosize;                               !- Dedicated Outdoor Air High Setpoint Temperature for Design {C}

OS:ZoneHVAC:EquipmentList,
  {ee092a86-215b-42ce-a5b4-f5390463292a}, !- Handle
  Zone SCn WarehouseCond A end_a - Story Ground Zone HVAC Equipment List, !- Name
  {bbac3845-05e5-481e-9da9-4f0fe2d1b22e}, !- Thermal Zone
  ,                                       !- Load Distribution Scheme
  {68e7f0c6-74e7-4d6b-999e-0b5529f00971}, !- Zone Equipment 1
  1,                                      !- Zone Equipment Cooling Sequence 1
  1;                                      !- Zone Equipment Heating or No-Load Sequence 1

OS:Space,
  {6e853f20-e6a9-4bbf-a26a-4ac71272e44f}, !- Handle
  SCn WarehouseCond B end_a - Story Ground, !- Name
  {3c805e54-2d67-493d-963a-6bfc024a9f5b}, !- Space Type Name
  ,                                       !- Default Construction Set Name
  ,                                       !- Default Schedule Set Name
  -0,                                     !- Direction of Relative North {deg}
  -14.2557146436087,                      !- X Origin {m}
  -9.68371464360872,                      !- Y Origin {m}
  0,                                      !- Z Origin {m}
  {a4c3b895-0189-4208-9cec-265af9dcec49}, !- Building Story Name
  {ebfde164-9ba9-4cd4-a98f-66c51e2d5e12}; !- Thermal Zone Name

OS:Surface,
  {b321c3a3-5204-4d2b-b140-f9ca61b4780f}, !- Handle
  Surface 7,                              !- Name
  Floor,                                  !- Surface Type
  {2ca26908-5791-4d32-911b-08137868986e}, !- Construction Name
  {6e853f20-e6a9-4bbf-a26a-4ac71272e44f}, !- Space Name
  Ground,                                 !- Outside Boundary Condition
  ,                                       !- Outside Boundary Condition Object
  NoSun,                                  !- Sun Exposure
  NoWind,                                 !- Wind Exposure
  ,                                       !- View Factor to Ground
  ,                                       !- Number of Vertices
  1.59872115546023e-14, -3.5527136788005e-15, 0, !- X,Y,Z Vertex 1 {m}
  1.59872115546023e-14, 19.3674292872174, 0, !- X,Y,Z Vertex 2 {m}
  4.572, 19.3674292872174, 0,             !- X,Y,Z Vertex 3 {m}
  4.572, -3.5527136788005e-15, 0;         !- X,Y,Z Vertex 4 {m}

OS:Surface,
  {8ea8aa02-6ba0-488a-ad85-8bd7e9d9ff9d}, !- Handle
  Surface 8,                              !- Name
  Wall,                                   !- Surface Type
  {2f65f976-7405-4d4f-b876-0ac30fef6b1f}, !- Construction Name
  {6e853f20-e6a9-4bbf-a26a-4ac71272e44f}, !- Space Name
  Outdoors,                               !- Outside Boundary Condition
  ,                                       !- Outside Boundary Condition Object
  SunExposed,                             !- Sun Exposure
  WindExposed,                            !- Wind Exposure
  ,                                       !- View Factor to Ground
  ,                                       !- Number of Vertices
  1.59872115546023e-14, 19.3674292872174, 6.096, !- X,Y,Z Vertex 1 {m}
  1.59872115546023e-14, 19.3674292872174, 0, !- X,Y,Z Vertex 2 {m}
  1.59872115546023e-14, -3.5527136788005e-15, 0, !- X,Y,Z Vertex 3 {m}
  1.59872115546023e-14, -3.5527136788005e-15, 6.096; !- X,Y,Z Vertex 4 {m}

OS:Surface,
  {c40ea464-e768-4b5b-9219-de3f835bc53f}, !- Handle
  Surface 9,                              !- Name
  Wall,                                   !- Surface Type
  ,                                       !- Construction Name
  {6e853f20-e6a9-4bbf-a26a-4ac71272e44f}, !- Space Name
  Surface,                                !- Outside Boundary Condition
  {a6df78d7-1a36-4f6c-b438-dc8405401afb}, !- Outside Boundary Condition Object
  NoSun,                                  !- Sun Exposure
  NoWind,                                 !- Wind Exposure
  ,                                       !- View Factor to Ground
  ,                                       !- Number of Vertices
  4.572, 19.3674292872174, 6.096,         !- X,Y,Z Vertex 1 {m}
  4.572, 19.3674292872174, 0,             !- X,Y,Z Vertex 2 {m}
  1.59872115546023e-14, 19.3674292872174, 0, !- X,Y,Z Vertex 3 {m}
  1.59872115546023e-14, 19.3674292872174, 6.096; !- X,Y,Z Vertex 4 {m}

OS:Surface,
  {ea79770b-7736-4189-a5e0-67913f2eaa88}, !- Handle
  Surface 10,                             !- Name
  Wall,                                   !- Surface Type
  ,                                       !- Construction Name
  {6e853f20-e6a9-4bbf-a26a-4ac71272e44f}, !- Space Name
  Surface,                                !- Outside Boundary Condition
  {a5bbee0b-5217-4f9a-9cde-fddf10185a72}, !- Outside Boundary Condition Object
  NoSun,                                  !- Sun Exposure
  NoWind,                                 !- Wind Exposure
  ,                                       !- View Factor to Ground
  ,                                       !- Number of Vertices
  4.572, -3.5527136788005e-15, 6.096,     !- X,Y,Z Vertex 1 {m}
  4.572, -3.5527136788005e-15, 0,         !- X,Y,Z Vertex 2 {m}
  4.572, 19.3674292872174, 0,             !- X,Y,Z Vertex 3 {m}
  4.572, 19.3674292872174, 6.096;         !- X,Y,Z Vertex 4 {m}

OS:Surface,
  {d8272f11-8b15-4b46-9554-7ec61fc69398}, !- Handle
  Surface 11,                             !- Name
  Wall,                                   !- Surface Type
  ,                                       !- Construction Name
  {6e853f20-e6a9-4bbf-a26a-4ac71272e44f}, !- Space Name
  Surface,                                !- Outside Boundary Condition
  {1606069d-5f2e-4a9b-864f-6f888687af0b}, !- Outside Boundary Condition Object
  NoSun,                                  !- Sun Exposure
  NoWind,                                 !- Wind Exposure
  ,                                       !- View Factor to Ground
  ,                                       !- Number of Vertices
  1.59872115546023e-14, -3.5527136788005e-15, 6.096, !- X,Y,Z Vertex 1 {m}
  1.59872115546023e-14, -3.5527136788005e-15, 0, !- X,Y,Z Vertex 2 {m}
  4.572, -3.5527136788005e-15, 0,         !- X,Y,Z Vertex 3 {m}
  4.572, -3.5527136788005e-15, 6.096;     !- X,Y,Z Vertex 4 {m}

OS:Surface,
  {143fdf95-4d69-43aa-9ab2-b56348de0e3b}, !- Handle
  Surface 12,                             !- Name
  RoofCeiling,                            !- Surface Type
  ,                                       !- Construction Name
  {6e853f20-e6a9-4bbf-a26a-4ac71272e44f}, !- Space Name
  Surface,                                !- Outside Boundary Condition
  {e2e4ce53-35b4-4efb-a092-c5348c06fc2b}, !- Outside Boundary Condition Object
  NoSun,                                  !- Sun Exposure
  NoWind,                                 !- Wind Exposure
  ,                                       !- View Factor to Ground
  ,                                       !- Number of Vertices
  4.572, -3.5527136788005e-15, 6.096,     !- X,Y,Z Vertex 1 {m}
  4.572, 19.3674292872174, 6.096,         !- X,Y,Z Vertex 2 {m}
  1.59872115546023e-14, 19.3674292872174, 6.096, !- X,Y,Z Vertex 3 {m}
  1.59872115546023e-14, -3.5527136788005e-15, 6.096; !- X,Y,Z Vertex 4 {m}

OS:ThermalZone,
  {ebfde164-9ba9-4cd4-a98f-66c51e2d5e12}, !- Handle
  Zone SCn WarehouseCond B end_a - Story Ground, !- Name
  1,                                      !- Multiplier
  ,                                       !- Ceiling Height {m}
  ,                                       !- Volume {m3}
  ,                                       !- Floor Area {m2}
  ,                                       !- Zone Inside Convection Algorithm
  ,                                       !- Zone Outside Convection Algorithm
  ,                                       !- Zone Conditioning Equipment List Name
  {33eed09e-679e-4c3c-a7b3-55ba059c95ea}, !- Zone Air Inlet Port List
  {cc638cf5-d7b7-41f9-b1a6-ee6e7a2a1454}, !- Zone Air Exhaust Port List
  {cf7dd5ed-9d61-4fbc-9174-27cbe35fc1a7}, !- Zone Air Node Name
  {afad06ad-3abd-47f0-bf0d-7d8649410dec}, !- Zone Return Air Port List