
OS:Version,
  {b72403c3-c29c-47e4-83c3-2edf6be086d9}, !- Handle
  3.8.0;                                  !- Version Identifier

OS:Building,
  {3ce9248f-36f4-4939-9480-59afa1ce1a86}, !- Handle
  ComStock DOE Ref Pre-1980|Hospital,     !- Name
  ,                                       !- Building Sector Type
  135,                                    !- North Axis {deg}
  ,                                       !- Nominal Floor to Floor Height {m}
  ,                                       !- Space Type Name
  {bfe80362-fde1-4a10-acfd-34d45961dcc0}, !- Default Construction Set Name
  {cec9137c-d0b3-406b-9205-d3817ab1230d}, !- Default Schedule Set Name
  ,                                       !- Standards Number of Stories
  ,                                       !- Standards Number of Above Ground Stories
  ,                                       !- Standards Template
  Hospital;                               !- Standards Building Type

OS:Facility,
  {09baa3e2-05f2-46ae-9456-e9ccd3065380}; !- Handle

OS:Site,
  {9afc1652-772b-4c9a-b71e-306ec7359974}, !- Handle
  Hattiesburg Laurel_MS_USA,              !- Name
  31.47,                                  !- Latitude {deg}
  -89.34,                                 !- Longitude {deg}
  -6,                                     !- Time Zone {hr}
  91,                                     !- Elevation {m}
  City;                                   !- Terrain

OS:SimulationControl,
  {061c8d78-f5f9-4282-8465-9744c64ec376}, !- Handle
  Yes,                                    !- Do Zone Sizing Calculation
  Yes,                                    !- Do System Sizing Calculation
  Yes,                                    !- Do Plant Sizing Calculation
  No,                                     !- Run Simulation for Sizing Periods
  Yes,                                    !- Run Simulation for Weather File Run Periods
  ,                                       !- Loads Convergence Tolerance Value {W}
  ,                                       !- Temperature Convergence Tolerance Value {deltaC}
  ,                                       !- Solar Distribution
  ,                                       !- Maximum Number of Warmup Days
  ,                                       !- Minimum Number of Warmup Days
  No,                                     !- Do HVAC Sizing Simulation for Sizing Periods
  1;                                      !- Maximum Number of HVAC Sizing Simulation Passes

OS:Sizing:Parameters,
  {d59013fc-b317-4f65-8fdb-0c1980682888}, !- Handle
  1.25,                                   !- Heating Sizing Factor
  1.15;                                   !- Cooling Sizing Factor

OS:Timestep,
  {ae933f5f-2b2b-4324-9a00-cf03d7119a01}, !- Handle
  4;                                      !- Number of Timesteps per Hour

OS:ShadowCalculation,
  {f9c51653-bd3f-4c62-817a-f8c4afb19fe0}, !- Handle
  PolygonClipping,                        !- Shading Calculation Method
  ,                                       !- Shading Calculation Update Frequency Method
  20,                                     !- Shading Calculation Update Frequency
  15000,                                  !- Maximum Figures in Shadow Overlap Calculations
  ,                                       !- Polygon Clipping Algorithm
  512,                                    !- Pixel Counting Resolution
  ,                                       !- Sky Diffuse Modeling Algorithm
  No,                                     !- Output External Shading Calculation Results
  No,                                     !- Disable Self-Shading Within Shading Zone Groups
  No;                                     !- Disable Self-Shading From Shading Zone Groups to Other Zones

OS:HeatBalanceAlgorithm,
  {584ecaab-24d6-4c07-8822-58f6c145a240}, !- Handle
  ConductionTransferFunction,             !- Algorithm
  200;                                    !- Surface Temperature Upper Limit {C}

OS:RunPeriod,
  {c5e26694-9bf3-48c0-a20e-50c0b906ead2}, !- Handle
  Run Period 1,                           !- Name
  1,                                      !- Begin Month
  1,                                      !- Begin Day of Month
  12,                                     !- End Month
  31,                                     !- End Day of Month
  ,                                       !- Use Weather File Holidays and Special Days
  ,                                       !- Use Weather File Daylight Saving Period
  ,                                       !- Apply Weekend Holiday Rule
  ,                                       !- Use Weather File Rain Indicators
  ,                                       !- Use Weather File Snow Indicators
  ;                                       !- Number of Times Runperiod to be Repeated

OS:LifeCycleCost:Parameters,
  {191d27d1-4514-46f8-b679-f9e6f0ca311c}, !- Handle
  ,                                       !- Analysis Type
  ,                                       !- Discounting Convention
  ,                                       !- Inflation Approach
  ,                                       !- Real Discount Rate
  ,                                       !- Nominal Discount Rate
  ,                                       !- Inflation
  ,                                       !- Base Date Month
  ,                                       !- Base Date Year
  ,                                       !- Service Date Month
  ,                                       !- Service Date Year
  ;                                       !- Length of Study Period in Years

OS:WeatherFile,
  {dc2744ec-15e9-47f6-89ff-cd2389fc102a}, !- Handle
  Hattiesburg Laurel,                     !- City
  MS,                                     !- State Province Region
  USA,                                    !- Country
  customized weather file,                !- Data Source
  722348,                                 !- WMO Number
  31.47,                                  !- Latitude {deg}
  -89.34,                                 !- Longitude {deg}
  -6,                                     !- Time Zone {hr}
  91,                                     !- Elevation {m}
  /weather/G2801110.epw,                  !- Url
  226BE93E,                               !- Checksum
  ,                                       !- Start Date Actual Year
  Friday;                                 !- Start Day of Week

OS:AdditionalProperties,
  {ed63b5be-a2ac-4359-9db9-d0307b58c611}, !- Handle
  {3ce9248f-36f4-4939-9480-59afa1ce1a86}, !- Object Name
  Building,                               !- Feature Name 1
  String,                                 !- Feature Data Type 1
  16,                                     !- Feature Value 1
  cook_fuel_broiler,                      !- Feature Name 2
  String,                                 !- Feature Data Type 2
  Gas,                                    !- Feature Value 2
  cook_fuel_fryer,                        !- Feature Name 3
  String,                                 !- Feature Data Type 3
  Electric,                               !- Feature Value 3
  cook_fuel_griddle,                      !- Feature Name 4
  String,                                 !- Feature Data Type 4
  Electric,                               !- Feature Value 4
  cook_fuel_oven,                         !- Feature Name 5
  String,                                 !- Feature Data Type 5
  Electric,                               !- Feature Value 5
  cook_fuel_range,                        !- Feature Name 6
  String,                                 !- Feature Data Type 6
  Gas,                                    !- Feature Value 6
  cook_fuel_steamer,                      !- Feature Name 7
  String,                                 !- Feature Data Type 7
  Gas,                                    !- Feature Value 7
  heating_fuel,                           !- Feature Name 8
  String,                                 !- Feature Data Type 8
  NaturalGas,                             !- Feature Value 8
  hvac_system_type,                       !- Feature Name 9
  String,                                 !- Feature Data Type 9
  VAV air-cooled chiller with gas boiler reheat, !- Feature Value 9
  rotation,                               !- Feature Name 10
  String,                                 !- Feature Data Type 10
  135,                                    !- Feature Value 10
  year_of_simulation,                     !- Feature Name 11
  String,                                 !- Feature Data Type 11
  2018,                                   !- Feature Value 11
  building_type,                          !- Feature Name 12
  String,                                 !- Feature Data Type 12
  hospital,                               !- Feature Value 12
  sampling_region,                        !- Feature Name 13
  String,                                 !- Feature Data Type 13
  0,                                      !- Feature Value 13
  size_bin,                               !- Feature Name 14
  String,                                 !- Feature Data Type 14
  0,                                      !- Feature Value 14
  building_area,                          !- Feature Name 15
  String,                                 !- Feature Data Type 15
  52001_64000,                            !- Feature Value 15
  tract,                                  !- Feature Name 16
  String,                                 !- Feature Data Type 16
  G2801110950101,                         !- Feature Value 16
  year_built,                             !- Feature Name 17
  String,                                 !- Feature Data Type 17
  1970,                                   !- Feature Value 17
  number_stories,                         !- Feature Name 18
  String,                                 !- Feature Data Type 18
  2,                                      !- Feature Value 18
  state_id,                               !- Feature Name 19
  String,                                 !- Feature Data Type 19
  G280,                                   !- Feature Value 19
  county_id,                              !- Feature Name 20
  String,                                 !- Feature Data Type 20
  G2801110,                               !- Feature Value 20
  building_subtype,                       !- Feature Name 21
  String,                                 !- Feature Data Type 21
  NA,                                     !- Feature Value 21
  census_region,                          !- Feature Name 22
  String,                                 !- Feature Data Type 22
  East South Central,                     !- Feature Value 22
  climate_zone,                           !- Feature Name 23
  String,                                 !- Feature Data Type 23
  3A,                                     !- Feature Value 23
  ground_thermal_conductivity,            !- Feature Name 24
  String,                                 !- Feature Data Type 24
  1.1,                                    !- Feature Value 24
  energy_code_compliance_during_original_building_construction, !- Feature Name 25
  String,                                 !- Feature Data Type 25
  comply,                                 !- Feature Value 25
  ownership_status,                       !- Feature Name 26
  String,                                 !- Feature Data Type 26
  owner_occupied,                         !- Feature Value 26
  party_responsible_for_operation,        !- Feature Name 27
  String,                                 !- Feature Data Type 27
  building_owner,                         !- Feature Value 27
  purchase_input_responsibility,          !- Feature Name 28
  String,                                 !- Feature Data Type 28
  building_owner,                         !- Feature Value 28
  year_bin_of_original_building_construction, !- Feature Name 29
  String,                                 !- Feature Data Type 29
  pre_1978,                               !- Feature Value 29
  energy_code_in_force_during_original_building_construction, !- Feature Name 30
  String,                                 !- Feature Data Type 30
  ComStock DOE Ref Pre-1980,              !- Feature Value 30
  window_wall_ratio,                      !- Feature Name 31
  String,                                 !- Feature Data Type 31
  11_25pct,                               !- Feature Value 31
  energy_code_followed_during_original_building_construction, !- Feature Name 32
  String,                                 !- Feature Data Type 32
  ComStock DOE Ref Pre-1980,              !- Feature Value 32
  building_shape,                         !- Feature Name 33
  String,                                 !- Feature Data Type 33
  4,                                      !- Feature Value 33
  service_water_heating_fuel,             !- Feature Name 34
  String,                                 !- Feature Data Type 34
  NaturalGas,                             !- Feature Value 34
  wall_construction_type,                 !- Feature Name 35
  String,                                 !- Feature Data Type 35
  wood_framed,                            !- Feature Value 35
  weekday_start_time,                     !- Feature Name 36
  String,                                 !- Feature Data Type 36
  6.75,                                   !- Feature Value 36
  weekend_start_time,                     !- Feature Name 37
  String,                                 !- Feature Data Type 37
  10.0,                                   !- Feature Value 37
  thermal_bridging,                       !- Feature Name 38
  String,                                 !- Feature Data Type 38
  wood-framed unmitigated,                !- Feature Value 38
  airtightness,                           !- Feature Name 39
  String,                                 !- Feature Data Type 39
  30.0,                                   !- Feature Value 39
  aspect_ratio,                           !- Feature Name 40
  String,                                 !- Feature Data Type 40
  2,                                      !- Feature Value 40
  weekday_duration,                       !- Feature Name 41
  String,                                 !- Feature Data Type 41
  9.0,                                    !- Feature Value 41
  weekend_duration,                       !- Feature Name 42
  String,                                 !- Feature Data Type 42
  8.0,                                    !- Feature Value 42
  energy_code_compliance_hvac,            !- Feature Name 43
  String,                                 !- Feature Data Type 43
  comply,                                 !- Feature Value 43
  fault_economizer_damper_fully_closed,   !- Feature Name 44
  String,                                 !- Feature Data Type 44
  Fault nov,                              !- Feature Value 44
  hvac_night_variability,                 !- Feature Name 45
  String,                                 !- Feature Data Type 45
  default_nochange,                       !- Feature Value 45
  hvac_tst_clg_delta_f,                   !- Feature Name 46
  String,                                 !- Feature Data Type 46
  999,                                    !- Feature Value 46
  hvac_tst_clg_sp_f,                      !- Feature Name 47
  String,                                 !- Feature Data Type 47
  999,                                    !- Feature Value 47
  hvac_tst_htg_delta_f,                   !- Feature Name 48
  String,                                 !- Feature Data Type 48
  999,                                    !- Feature Value 48
  hvac_tst_htg_sp_f,                      !- Feature Name 49
  String,                                 !- Feature Data Type 49
  999,                                    !- Feature Value 49
  year_bin_of_last_hvac_replacement,      !- Feature Name 50
  String,                                 !- Feature Data Type 50
  2003,                                   !- Feature Value 50
  energy_code_in_force_during_last_hvac_replacement, !- Feature Name 51
  String,                                 !- Feature Data Type 51
  ComStock DOE Ref 1980-2004,             !- Feature Value 51
  energy_code_followed_during_last_hvac_replacement, !- Feature Name 52
  String,                                 !- Feature Data Type 52
  ComStock DOE Ref 1980-2004,             !- Feature Value 52
  fault_economizer_db_limit,              !- Feature Name 53
  String,                                 !- Feature Data Type 53
  No fault,                               !- Feature Value 53
  cook_dining_type,                       !- Feature Name 54
  String,                                 !- Feature Data Type 54
  Hospitals Large,                        !- Feature Value 54
  cook_fryers_counts,                     !- Feature Name 55
  String,                                 !- Feature Data Type 55
  1.0,                                    !- Feature Value 55
  cook_griddles_counts,                   !- Feature Name 56
  String,                                 !- Feature Data Type 56
  0.5,                                    !- Feature Value 56
  cook_ovens_counts,                      !- Feature Name 57
  String,                                 !- Feature Data Type 57
  5.0,                                    !- Feature Value 57
  cook_ranges_counts,                     !- Feature Name 58
  String,                                 !- Feature Data Type 58
  0.5,                                    !- Feature Value 58
  cook_steamers_counts,                   !- Feature Name 59
  String,                                 !- Feature Data Type 59
  5.0,                                    !- Feature Value 59
  cook_broiler_counts,                    !- Feature Name 60
  String,                                 !- Feature Data Type 60
  0.5,                                    !- Feature Value 60
  energy_code_compliance_service_water_heating, !- Feature Name 61
  String,                                 !- Feature Data Type 61
  comply,                                 !- Feature Value 61
  energy_code_compliance_interior_equipment, !- Feature Name 62
  String,                                 !- Feature Data Type 62
  comply,                                 !- Feature Value 62
  plugload_sch_base_peak_ratio_type,      !- Feature Name 63
  String,                                 !- Feature Data Type 63
  no_modification,                        !- Feature Value 63
  plugload_sch_weekday_base_peak_ratio,   !- Feature Name 64
  String,                                 !- Feature Data Type 64
  NA,                                     !- Feature Value 64
  plugload_sch_weekend_base_peak_ratio,   !- Feature Name 65
  String,                                 !- Feature Data Type 65
  NA,                                     !- Feature Value 65
  year_bin_of_last_interior_equipment_replacement, !- Feature Name 66
  String,                                 !- Feature Data Type 66
  2013,                                   !- Feature Value 66
  year_bin_of_last_service_water_heating_replacement, !- Feature Name 67
  String,                                 !- Feature Data Type 67
  2010,                                   !- Feature Value 67
  energy_code_in_force_during_last_interior_equipment_replacement, !- Feature Name 68
  String,                                 !- Feature Data Type 68
  ComStock DOE Ref 1980-2004,             !- Feature Value 68
  energy_code_in_force_during_last_service_water_heating_replacement, !- Feature Name 69
  String,                                 !- Feature Data Type 69
  ComStock DOE Ref 1980-2004,             !- Feature Value 69
  energy_code_followed_during_last_interior_equipment_replacement, !- Feature Name 70
  String,                                 !- Feature Data Type 70
  ComStock DOE Ref 1980-2004,             !- Feature Value 70
  energy_code_followed_during_last_service_water_heating_replacement, !- Feature Name 71
  String,                                 !- Feature Data Type 71
  ComStock DOE Ref 1980-2004,             !- Feature Value 71
  building_size_lighting_tech,            !- Feature Name 72
  String,                                 !- Feature Data Type 72
  large,                                  !- Feature Value 72
  energy_code_compliance_exterior_lighting, !- Feature Name 73
  String,                                 !- Feature Data Type 73
  comply,                                 !- Feature Value 73
  energy_code_compliance_interior_lighting, !- Feature Name 74
  String,                                 !- Feature Data Type 74
  lead,                                   !- Feature Value 74
  ltg_sch_base_peak_ratio_type,           !- Feature Name 75
  String,                                 !- Feature Data Type 75
  no_modification,                        !- Feature Value 75
  ltg_sch_weekday_base_peak_ratio,        !- Feature Name 76
  String,                                 !- Feature Data Type 76
  NA,                                     !- Feature Value 76
  ltg_sch_weekend_base_peak_ratio,        !- Feature Name 77
  String,                                 !- Feature Data Type 77
  NA,                                     !- Feature Value 77
  year_bin_of_last_exterior_lighting_replacement, !- Feature Name 78
  String,                                 !- Feature Data Type 78
  2015,                                   !- Feature Value 78
  year_bin_of_last_interior_lighting_replacement, !- Feature Name 79
  String,                                 !- Feature Data Type 79
  2017,                                   !- Feature Value 79
  energy_code_in_force_during_last_exterior_lighting_replacement, !- Feature Name 80
  String,                                 !- Feature Data Type 80
  ComStock 90.1-2010,                     !- Feature Value 80
  energy_code_in_force_during_last_interior_lighting_replacement, !- Feature Name 81
  String,                                 !- Feature Data Type 81
  ComStock 90.1-2010,                     !- Feature Value 81
  lighting_generation,                    !- Feature Name 82
  String,                                 !- Feature Data Type 82
  gen5_led,                               !- Feature Value 82
  energy_code_followed_during_last_exterior_lighting_replacement, !- Feature Name 83
  String,                                 !- Feature Data Type 83
  ComStock 90.1-2010,                     !- Feature Value 83
  energy_code_followed_during_last_interior_lighting_replacement, !- Feature Name 84
  String,                                 !- Feature Data Type 84
  ComStock 90.1-2019,                     !- Feature Value 84
  energy_code_compliance_roof,            !- Feature Name 85
  String,                                 !- Feature Data Type 85
  comply,                                 !- Feature Value 85
  energy_code_compliance_walls,           !- Feature Name 86
  String,                                 !- Feature Data Type 86
  comply,                                 !- Feature Value 86
  energy_code_compliance_windows,         !- Feature Name 87
  String,                                 !- Feature Data Type 87
  comply,                                 !- Feature Value 87
  year_bin_of_last_roof_replacement,      !- Feature Name 88
  String,                                 !- Feature Data Type 88
  pre_1978,                               !- Feature Value 88
  year_bin_of_last_walls_replacement,     !- Feature Name 89
  String,                                 !- Feature Data Type 89
  pre_1978,                               !- Feature Value 89
  year_bin_of_last_windows_replacement,   !- Feature Name 90
  String,                                 !- Feature Data Type 90
  2009,                                   !- Feature Value 90
  energy_code_in_force_during_last_roof_replacement, !- Feature Name 91
  String,                                 !- Feature Data Type 91
  ComStock DOE Ref Pre-1980,              !- Feature Value 91
  energy_code_in_force_during_last_walls_replacement, !- Feature Name 92
  String,                                 !- Feature Data Type 92
  ComStock DOE Ref Pre-1980,              !- Feature Value 92
  energy_code_in_force_during_last_windows_replacement, !- Feature Name 93
  String,                                 !- Feature Data Type 93
  ComStock DOE Ref 1980-2004,             !- Feature Value 93
  energy_code_followed_during_last_roof_replacement, !- Feature Name 94
  String,                                 !- Feature Data Type 94
  ComStock DOE Ref Pre-1980,              !- Feature Value 94
  energy_code_followed_during_last_walls_replacement, !- Feature Name 95
  String,                                 !- Feature Data Type 95
  ComStock DOE Ref Pre-1980,              !- Feature Value 95
  energy_code_followed_during_last_windows_replacement, !- Feature Name 96
  String,                                 !- Feature Data Type 96
  ComStock DOE Ref 1980-2004,             !- Feature Value 96
  baseline_window_type,                   !- Feature Name 97
  String,                                 !- Feature Data Type 97
  Single - No LowE - Clear - Wood,        !- Feature Value 97
  baseline_hvac_sizing,                   !- Feature Name 98
  String,                                 !- Feature Data Type 98
  hardsize,                               !- Feature Value 98
  nhgis_tract_gisjoin,                    !- Feature Name 99
  String,                                 !- Feature Data Type 99
  G2801110950101,                         !- Feature Value 99
  nhgis_county_gisjoin,                   !- Feature Name 100
  String,                                 !- Feature Data Type 100
  G2801110,                               !- Feature Value 100
  nhgis_puma_gisjoin,                     !- Feature Name 101
  String,                                 !- Feature Data Type 101
  G28001800,                              !- Feature Value 101
  state_name,                             !- Feature Name 102
  String,                                 !- Feature Data Type 102
  Mississippi,                            !- Feature Value 102
  state_abbreviation,                     !- Feature Name 103
  String,                                 !- Feature Data Type 103
  MS,                                     !- Feature Value 103
  census_division_name,                   !- Feature Name 104
  String,                                 !- Feature Data Type 104
  East South Central,                     !- Feature Value 104
  census_region_name,                     !- Feature Name 105
  String,                                 !- Feature Data Type 105
  South,                                  !- Feature Value 105
  census_division_name_recs,              !- Feature Name 106
  String,                                 !- Feature Data Type 106
  East South Central,                     !- Feature Value 106
  american_housing_survey_region,         !- Feature Name 107
  String,                                 !- Feature Data Type 107
  Non-CBSA East South Central,            !- Feature Value 107
  weather_file_2018,                      !- Feature Name 108
  String,                                 !- Feature Data Type 108
  USA_MS_Hattiesburg.Laurel.722348_2018.epw, !- Feature Value 108
  weather_file_TMY3,                      !- Feature Name 109
  String,                                 !- Feature Data Type 109
  Hattiesburg_Laurel,                     !- Feature Value 109
  climate_zone_building_america,          !- Feature Name 110
  String,                                 !- Feature Data Type 110
  Hot-Humid,                              !- Feature Value 110
  climate_zone_ashrae_2006,               !- Feature Name 111
  String,                                 !- Feature Data Type 111
  3A,                                     !- Feature Value 111
  iso_region,                             !- Feature Name 112
  String,                                 !- Feature Data Type 112
  MISO,                                   !- Feature Value 112
  reeds_balancing_area,                   !- Feature Name 113
  String,                                 !- Feature Data Type 113
  87,                                     !- Feature Value 113
  resstock_county_id,                     !- Feature Name 114
  String,                                 !- Feature Data Type 114
  MS&#44 Perry County,                    !- Feature Value 114
  resstock_puma_id,                       !- Feature Name 115
  String,                                 !- Feature Data Type 115
  MS&#44 01800,                           !- Feature Value 115
  resstock_custom_region,                 !- Feature Name 116
  String,                                 !- Feature Data Type 116
  CR09,                                   !- Feature Value 116
  cambium_grid_region,                    !- Feature Name 117
  String,                                 !- Feature Data Type 117
  SRMVc,                                  !- Feature Value 117
  cluster_id,                             !- Feature Name 118
  String,                                 !- Feature Data Type 118
  20,                                     !- Feature Value 118
  cluster_name,                           !- Feature Name 119
  String,                                 !- Feature Data Type 119
  the Jackson-Hattiesburg Area,           !- Feature Value 119
  grid_region,                            !- Feature Name 120
  String,                                 !- Feature Data Type 120
  SRMVc,                                  !- Feature Value 120
  Soil Conductivity,                      !- Feature Name 121
  Double,                                 !- Feature Data Type 121
  1.1000000000000001,                     !- Feature Value 121
  Undisturbed Ground Temperature,         !- Feature Name 122
  Double,                                 !- Feature Data Type 122