
OS:Version,
  {9e10651f-1a65-4edb-af96-88bd9fdcaf0a}, !- Handle
  3.7.0;                                  !- Version Identifier

OS:Facility,
  {ee230f57-0742-44ed-8a9f-48d453e013f0}; !- Handle

OS:Site,
  {b61d5941-57b7-45b9-b198-88a2371ffb9e}, !- Handle
  Northeast Philadelph,                   !- Name
  40.08,                                  !- Latitude {deg}
  -75.01,                                 !- Longitude {deg}
  -5,                                     !- Time Zone {hr}
  36,                                     !- Elevation {m}
  City;                                   !- Terrain

OS:SimulationControl,
  {7a02a974-3870-4952-a33c-da2e5b490899}, !- Handle
  ,                                       !- Do Zone Sizing Calculation
  ,                                       !- Do System Sizing Calculation
  ,                                       !- Do Plant Sizing Calculation
  No,                                     !- Run Simulation for Sizing Periods
  Yes,                                    !- Run Simulation for Weather File Run Periods
  ,                                       !- Loads Convergence Tolerance Value {W}
  ,                                       !- Temperature Convergence Tolerance Value {deltaC}
  ,                                       !- Solar Distribution
  ,                                       !- Maximum Number of Warmup Days
  ,                                       !- Minimum Number of Warmup Days
  No,                                     !- Do HVAC Sizing Simulation for Sizing Periods
  1;                                      !- Maximum Number of HVAC Sizing Simulation Passes

OS:Sizing:Parameters,
  {7e0a491b-c2b5-4164-9b2e-5ca2f104b410}, !- Handle
  1.25,                                   !- Heating Sizing Factor
  1.15;                                   !- Cooling Sizing Factor

OS:Timestep,
  {1670da06-7b82-464c-8eb2-7903a2a5120b}, !- Handle
  4;                                      !- Number of Timesteps per Hour

OS:ShadowCalculation,
  {10df7157-182e-486a-a325-c0abc2406eea}, !- Handle
  PolygonClipping,                        !- Shading Calculation Method
  ,                                       !- Shading Calculation Update Frequency Method
  20,                                     !- Shading Calculation Update Frequency
  15000,                                  !- Maximum Figures in Shadow Overlap Calculations
  ,                                       !- Polygon Clipping Algorithm
  512,                                    !- Pixel Counting Resolution
  ,                                       !- Sky Diffuse Modeling Algorithm
  No,                                     !- Output External Shading Calculation Results
  No,                                     !- Disable Self-Shading Within Shading Zone Groups
  No;                                     !- Disable Self-Shading From Shading Zone Groups to Other Zones

OS:HeatBalanceAlgorithm,
  {d47f6a91-37e7-412c-8aee-b9c6de303d47}, !- Handle
  ConductionTransferFunction,             !- Algorithm
  200;                                    !- Surface Temperature Upper Limit {C}

OS:RunPeriod,
  {6b5a4bd3-a17f-4a30-8c64-df12d3db223b}, !- Handle
  Run Period 1,                           !- Name
  1,                                      !- Begin Month
  1,                                      !- Begin Day of Month
  12,                                     !- End Month
  31,                                     !- End Day of Month
  ,                                       !- Use Weather File Holidays and Special Days
  ,                                       !- Use Weather File Daylight Saving Period
  ,                                       !- Apply Weekend Holiday Rule
  ,                                       !- Use Weather File Rain Indicators
  ,                                       !- Use Weather File Snow Indicators
  ;                                       !- Number of Times Runperiod to be Repeated

OS:LifeCycleCost:Parameters,
  {88773be2-07f1-4013-8136-b74de84aeec0}, !- Handle
  ,                                       !- Analysis Type
  ,                                       !- Discounting Convention
  ,                                       !- Inflation Approach
  ,                                       !- Real Discount Rate
  ,                                       !- Nominal Discount Rate
  ,                                       !- Inflation
  ,                                       !- Base Date Month
  ,                                       !- Base Date Year
  ,                                       !- Service Date Month
  ,                                       !- Service Date Year
  ;                                       !- Length of Study Period in Years

OS:Site:WaterMainsTemperature,
  {a5cc8771-aaec-4f3a-a162-4f9940bcad00}, !- Handle
  Correlation,                            !- Calculation Method
  ,                                       !- Temperature Schedule Name
  14.165,                                 !- Annual Average Outdoor Air Temperature {C}
  25.99;                                  !- Maximum Difference In Monthly Average Outdoor Air Temperatures {deltaC}

OS:SizingPeriod:DesignDay,
  {8af10bab-e170-433a-b324-cad3258b845e}, !- Handle
  Northeast Philadelph Ann Clg .4% Condns DB=>MWB 1, !- Name
  34,                                     !- Maximum Dry-Bulb Temperature {C}
  10.2,                                   !- Daily Dry-Bulb Temperature Range {deltaC}
  100893,                                 !- Barometric Pressure {Pa}
  4.3,                                    !- Wind Speed {m/s}
  280,                                    !- Wind Direction {deg}
  ,                                       !- Sky Clearness
  No,                                     !- Rain Indicator
  No,                                     !- Snow Indicator
  21,                                     !- Day of Month
  7,                                      !- Month
  SummerDesignDay,                        !- Day Type
  No,                                     !- Daylight Saving Time Indicator
  Wetbulb,                                !- Humidity Condition Type
  ,                                       !- Humidity Condition Day Schedule Name
  24.1,                                   !- Wetbulb or DewPoint at Maximum Dry-Bulb {C}
  ,                                       !- Humidity Ratio at Maximum Dry-Bulb {kgWater/kgDryAir}
  ,                                       !- Enthalpy at Maximum Dry-Bulb {J/kg}
  DefaultMultipliers,                     !- Dry-Bulb Temperature Range Modifier Type
  ,                                       !- Dry-Bulb Temperature Range Modifier Day Schedule Name
  ASHRAETau,                              !- Solar Model Indicator
  ,                                       !- Beam Solar Day Schedule Name
  ,                                       !- Diffuse Solar Day Schedule Name
  0.453,                                  !- ASHRAE Clear Sky Optical Depth for Beam Irradiance {dimensionless}
  2.129;                                  !- ASHRAE Clear Sky Optical Depth for Diffuse Irradiance {dimensionless}

OS:SizingPeriod:DesignDay,
  {3802916f-be2b-4d6f-b307-0c5611625ba8}, !- Handle
  Northeast Philadelph Ann Clg .4% Condns WB=>MDB 1, !- Name
  31.5,                                   !- Maximum Dry-Bulb Temperature {C}
  10.2,                                   !- Daily Dry-Bulb Temperature Range {deltaC}
  100893,                                 !- Barometric Pressure {Pa}
  4.3,                                    !- Wind Speed {m/s}
  280,                                    !- Wind Direction {deg}
  ,                                       !- Sky Clearness
  No,                                     !- Rain Indicator
  No,                                     !- Snow Indicator
  21,                                     !- Day of Month
  7,                                      !- Month
  SummerDesignDay,                        !- Day Type
  No,                                     !- Daylight Saving Time Indicator
  Wetbulb,                                !- Humidity Condition Type
  ,                                       !- Humidity Condition Day Schedule Name
  25.8,                                   !- Wetbulb or DewPoint at Maximum Dry-Bulb {C}
  ,                                       !- Humidity Ratio at Maximum Dry-Bulb {kgWater/kgDryAir}
  ,                                       !- Enthalpy at Maximum Dry-Bulb {J/kg}
  DefaultMultipliers,                     !- Dry-Bulb Temperature Range Modifier Type
  ,                                       !- Dry-Bulb Temperature Range Modifier Day Schedule Name
  ASHRAETau,                              !- Solar Model Indicator
  ,                                       !- Beam Solar Day Schedule Name
  ,                                       !- Diffuse Solar Day Schedule Name
  0.453,                                  !- ASHRAE Clear Sky Optical Depth for Beam Irradiance {dimensionless}
  2.129;                                  !- ASHRAE Clear Sky Optical Depth for Diffuse Irradiance {dimensionless}

OS:SizingPeriod:DesignDay,
  {d8650330-2515-486f-bef2-29162172a4a6}, !- Handle
  Northeast Philadelph Ann Clg 1% Condns DB=>MWB 1, !- Name
  32.6,                                   !- Maximum Dry-Bulb Temperature {C}
  10.2,                                   !- Daily Dry-Bulb Temperature Range {deltaC}
  100893,                                 !- Barometric Pressure {Pa}
  4.3,                                    !- Wind Speed {m/s}
  280,                                    !- Wind Direction {deg}
  ,                                       !- Sky Clearness
  No,                                     !- Rain Indicator
  No,                                     !- Snow Indicator
  21,                                     !- Day of Month
  7,                                      !- Month
  SummerDesignDay,                        !- Day Type
  No,                                     !- Daylight Saving Time Indicator
  Wetbulb,                                !- Humidity Condition Type
  ,                                       !- Humidity Condition Day Schedule Name
  23.4,                                   !- Wetbulb or DewPoint at Maximum Dry-Bulb {C}
  ,                                       !- Humidity Ratio at Maximum Dry-Bulb {kgWater/kgDryAir}
  ,                                       !- Enthalpy at Maximum Dry-Bulb {J/kg}
  DefaultMultipliers,                     !- Dry-Bulb Temperature Range Modifier Type
  ,                                       !- Dry-Bulb Temperature Range Modifier Day Schedule Name
  ASHRAETau,                              !- Solar Model Indicator
  ,                                       !- Beam Solar Day Schedule Name
  ,                                       !- Diffuse Solar Day Schedule Name
  0.453,                                  !- ASHRAE Clear Sky Optical Depth for Beam Irradiance {dimensionless}
  2.129;                                  !- ASHRAE Clear Sky Optical Depth for Diffuse Irradiance {dimensionless}

OS:SizingPeriod:DesignDay,
  {5115faca-c542-4c3b-b586-0618654fba81}, !- Handle
  Northeast Philadelph Ann Clg 2% Condns DP=>MDB 1, !- Name
  26.8,                                   !- Maximum Dry-Bulb Temperature {C}
  10.2,                                   !- Daily Dry-Bulb Temperature Range {deltaC}
  100893,                                 !- Barometric Pressure {Pa}
  4.3,                                    !- Wind Speed {m/s}
  280,                                    !- Wind Direction {deg}
  ,                                       !- Sky Clearness
  No,                                     !- Rain Indicator
  No,                                     !- Snow Indicator
  21,                                     !- Day of Month
  7,                                      !- Month
  SummerDesignDay,                        !- Day Type
  No,                                     !- Daylight Saving Time Indicator
  Dewpoint,                               !- Humidity Condition Type
  ,                                       !- Humidity Condition Day Schedule Name
  22.5,                                   !- Wetbulb or DewPoint at Maximum Dry-Bulb {C}
  ,                                       !- Humidity Ratio at Maximum Dry-Bulb {kgWater/kgDryAir}
  ,                                       !- Enthalpy at Maximum Dry-Bulb {J/kg}
  DefaultMultipliers,                     !- Dry-Bulb Temperature Range Modifier Type
  ,                                       !- Dry-Bulb Temperature Range Modifier Day Schedule Name
  ASHRAETau,                              !- Solar Model Indicator
  ,                                       !- Beam Solar Day Schedule Name
  ,                                       !- Diffuse Solar Day Schedule Name
  0.453,                                  !- ASHRAE Clear Sky Optical Depth for Beam Irradiance {dimensionless}
  2.129;                                  !- ASHRAE Clear Sky Optical Depth for Diffuse Irradiance {dimensionless}

OS:SizingPeriod:DesignDay,
  {67ce0918-700e-40cd-988b-5df028f7dc25}, !- Handle
  Northeast Philadelph Ann Htg 99% Condns DB 1, !- Name
  -8.4,                                   !- Maximum Dry-Bulb Temperature {C}
  0,                                      !- Daily Dry-Bulb Temperature Range {deltaC}
  100893,                                 !- Barometric Pressure {Pa}
  4.6,                                    !- Wind Speed {m/s}
  300,                                    !- Wind Direction {deg}
  0,                                      !- Sky Clearness
  No,                                     !- Rain Indicator
  No,                                     !- Snow Indicator
  21,                                     !- Day of Month
  1,                                      !- Month
  WinterDesignDay,                        !- Day Type
  No,                                     !- Daylight Saving Time Indicator
  Wetbulb,                                !- Humidity Condition Type
  ,                                       !- Humidity Condition Day Schedule Name
  -8.4,                                   !- Wetbulb or DewPoint at Maximum Dry-Bulb {C}
  ,                                       !- Humidity Ratio at Maximum Dry-Bulb {kgWater/kgDryAir}
  ,                                       !- Enthalpy at Maximum Dry-Bulb {J/kg}
  DefaultMultipliers,                     !- Dry-Bulb Temperature Range Modifier Type
  ,                                       !- Dry-Bulb Temperature Range Modifier Day Schedule Name
  ASHRAEClearSky;                         !- Solar Model Indicator

OS:SizingPeriod:DesignDay,
  {5db7b486-42df-40e9-b6b5-6e2a1fcbbcc5}, !- Handle
  Northeast Philadelph Ann Htg 99.6% Condns DB 1, !- Name
  -10.9,                                  !- Maximum Dry-Bulb Temperature {C}
  0,                                      !- Daily Dry-Bulb Temperature Range {deltaC}
  100893,                                 !- Barometric Pressure {Pa}
  4.6,                                    !- Wind Speed {m/s}
  300,                                    !- Wind Direction {deg}
  0,                                      !- Sky Clearness
  No,                                     !- Rain Indicator
  No,                                     !- Snow Indicator
  21,                                     !- Day of Month
  1,                                      !- Month
  WinterDesignDay,                        !- Day Type
  No,                                     !- Daylight Saving Time Indicator
  Wetbulb,                                !- Humidity Condition Type
  ,                                       !- Humidity Condition Day Schedule Name
  -10.9,                                  !- Wetbulb or DewPoint at Maximum Dry-Bulb {C}
  ,                                       !- Humidity Ratio at Maximum Dry-Bulb {kgWater/kgDryAir}
  ,                                       !- Enthalpy at Maximum Dry-Bulb {J/kg}
  DefaultMultipliers,                     !- Dry-Bulb Temperature Range Modifier Type
  ,                                       !- Dry-Bulb Temperature Range Modifier Day Schedule Name
  ASHRAEClearSky;                         !- Solar Model Indicator

OS:SizingPeriod:DesignDay,
  {8cc78948-a425-407e-a205-43c9bb9b88af}, !- Handle
  Northeast Philadelph Ann Htg Wind 99% Condns WS=>MCDB 1, !- Name
  0.8,                                    !- Maximum Dry-Bulb Temperature {C}
  0,                                      !- Daily Dry-Bulb Temperature Range {deltaC}
  100893,                                 !- Barometric Pressure {Pa}
  10.5,                                   !- Wind Speed {m/s}
  300,                                    !- Wind Direction {deg}
  0,                                      !- Sky Clearness
  No,                                     !- Rain Indicator
  No,                                     !- Snow Indicator
  21,                                     !- Day of Month
  1,                                      !- Month
  WinterDesignDay,                        !- Day Type
  No,                                     !- Daylight Saving Time Indicator
  Wetbulb,                                !- Humidity Condition Type
  ,                                       !- Humidity Condition Day Schedule Name
  0.8,                                    !- Wetbulb or DewPoint at Maximum Dry-Bulb {C}
  ,                                       !- Humidity Ratio at Maximum Dry-Bulb {kgWater/kgDryAir}
  ,                                       !- Enthalpy at Maximum Dry-Bulb {J/kg}
  DefaultMultipliers,                     !- Dry-Bulb Temperature Range Modifier Type
  ,                                       !- Dry-Bulb Temperature Range Modifier Day Schedule Name
  ASHRAEClearSky;                         !- Solar Model Indicator

OS:ClimateZones,
  {8db71115-ba1f-4d78-850d-e933df0f2bbc}, !- Handle
  ASHRAE,                                 !- Climate Zone Institution Name 1
  ANSI/ASHRAE Standard 169,               !- Climate Zone Document Name 1
  2006,                                   !- Climate Zone Document Year 1
  ASHRAE 169-2013-4A,                     !- Climate Zone Value 1
  CEC,                                    !- Climate Zone Institution Name 2
  California Climate Zone Descriptions,   !- Climate Zone Document Name 2
  1995,                                   !- Climate Zone Document Year 2
  ;                                       !- Climate Zone Value 2

OS:RunPeriodControl:DaylightSavingTime,
  {ff1953c1-01fa-4f3b-8752-0543c0dc7f78}, !- Handle
  2nd Sunday in March,                    !- Start Date
  1st Sunday in November;                 !- End Date

OS:YearDescription,
  {5d0d11dd-321f-41d5-9e3a-f174e19c5c5a}, !- Handle
  2018,                                   !- Calendar Year
  ,                                       !- Day of Week for Start Day
  ;                                       !- Is Leap Year

OS:Building,
  {5e9c372c-d55d-4904-b390-f5f6c2fc8ffe}, !- Handle
  ComStock 90.1-2004|Outpatient,          !- Name
  ,                                       !- Building Sector Type
  45,                                     !- North Axis {deg}
  ,                                       !- Nominal Floor to Floor Height {m}
  ,                                       !- Space Type Name
  {069fbea3-4288-4239-809e-da5ac96a31e9}, !- Default Construction Set Name
  {48187754-c075-4b32-a410-301f6913adca}, !- Default Schedule Set Name
  ,                                       !- Standards Number of Stories
  ,                                       !- Standards Number of Above Ground Stories
  ,                                       !- Standards Template
  Outpatient;                             !- Standards Building Type

OS:AdditionalProperties,
  {39211222-cd9d-4a83-b046-9b212ba7b53e}, !- Handle
  {5e9c372c-d55d-4904-b390-f5f6c2fc8ffe}, !- Object Name
  Soil Conductivity,                      !- Feature Name 1
  Double,                                 !- Feature Data Type 1
  1.1000000000000001,                     !- Feature Value 1
  Undisturbed Ground Temperature,         !- Feature Name 2
  Double,                                 !- Feature Data Type 2
  14.699999999999999,                     !- Feature Value 2
  grid_region,                            !- Feature Name 3
  String,                                 !- Feature Data Type 3
  RFCEc,                                  !- Feature Value 3
  hvac_system_type,                       !- Feature Name 4
  String,                                 !- Feature Data Type 4
  VAV chiller with gas boiler reheat,     !- Feature Value 4
  wall_as_constructed_template,           !- Feature Name 5
  String,                                 !- Feature Data Type 5
  ComStock 90.1-2004,                     !- Feature Value 5
  wall_template,                          !- Feature Name 6
  String,                                 !- Feature Data Type 6
  ComStock 90.1-2004,                     !- Feature Value 6
  roof_as_constructed_template,           !- Feature Name 7
  String,                                 !- Feature Data Type 7
  ComStock 90.1-2004,                     !- Feature Value 7
  roof_template,                          !- Feature Name 8
  String,                                 !- Feature Data Type 8
  ComStock 90.1-2004,                     !- Feature Value 8
  exterior_lighting_as_constructed_template, !- Feature Name 9
  String,                                 !- Feature Data Type 9
  ComStock 90.1-2004,                     !- Feature Value 9
  exterior_lighting_template,             !- Feature Name 10
  String,                                 !- Feature Data Type 10
  ComStock 90.1-2004,                     !- Feature Value 10
  interior_equipment_as_constructed_template, !- Feature Name 11
  String,                                 !- Feature Data Type 11
  ComStock 90.1-2004,                     !- Feature Value 11
  interior_equipment_template,            !- Feature Name 12
  String,                                 !- Feature Data Type 12
  ComStock 90.1-2004,                     !- Feature Value 12
  service_water_heating_as_constructed_template, !- Feature Name 13
  String,                                 !- Feature Data Type 13
  ComStock 90.1-2004,                     !- Feature Value 13
  service_water_heating_template,         !- Feature Name 14
  String,                                 !- Feature Data Type 14
  ComStock 90.1-2004,                     !- Feature Value 14
  hvac_as_constructed_template,           !- Feature Name 15
  String,                                 !- Feature Data Type 15
  ComStock 90.1-2004,                     !- Feature Value 15
  hvac_template,                          !- Feature Name 16
  String,                                 !- Feature Data Type 16
  ComStock 90.1-2004;                     !- Feature Value 16

OS:SpaceType,
  {f18b5173-ef87-4cb2-af7d-5c9b136d6544}, !- Handle
  Outpatient BioHazard - ComStock 90.1-2004, !- Name
  ,                                       !- Default Construction Set Name
  {1e39571c-dcb4-41de-858f-505d65b77049}, !- Default Schedule Set Name
  {c0a7c4ca-6473-4c83-a1d4-4d7976e73694}, !- Group Rendering Name
  {0321c135-1cb3-49ea-9ce7-9e07b2fe9e7f}, !- Design Specification Outdoor Air Object Name
  ,                                       !- Standards Template
  Outpatient,                             !- Standards Building Type
  BioHazard;                              !- Standards Space Type

OS:Rendering:Color,
  {c0a7c4ca-6473-4c83-a1d4-4d7976e73694}, !- Handle
  Outpatient BioHazard,                   !- Name
  204,                                    !- Rendering Red Value
  120,                                    !- Rendering Green Value
  230;                                    !- Rendering Blue Value

OS:SpaceType,
  {186045a2-2c54-4860-a525-926b2c15b050}, !- Handle
  Outpatient MedGas - ComStock 90.1-2004, !- Name
  ,                                       !- Default Construction Set Name
  {4c0fef24-c24e-440a-a069-2a78919d4c2a}, !- Default Schedule Set Name
  {80932750-2826-4e85-bd0d-dfcc7ea4b30c}, !- Group Rendering Name
  {d327f38e-78c6-4107-a9dd-29f745de00db}, !- Design Specification Outdoor Air Object Name
  ,                                       !- Standards Template
  Outpatient,                             !- Standards Building Type
  MedGas;                                 !- Standards Space Type

OS:Rendering:Color,
  {80932750-2826-4e85-bd0d-dfcc7ea4b30c}, !- Handle
  Outpatient MedGas,                      !- Name
  204,                                    !- Rendering Red Value
  120,                                    !- Rendering Green Value
  230;                                    !- Rendering Blue Value

OS:SpaceType,
  {95436dd6-357e-4a42-a23c-dd208de4c009}, !- Handle
  Outpatient DressingRoom - ComStock 90.1-2004, !- Name
  ,                                       !- Default Construction Set Name
  {5dc291eb-e10a-41e0-812b-d56af95328b9}, !- Default Schedule Set Name
  {f1aaa463-3bdb-4701-85d8-7fb8787f0151}, !- Group Rendering Name
  {c2d12659-1a48-4a1c-90b8-c2575d8fffb3}, !- Design Specification Outdoor Air Object Name
  ,                                       !- Standards Template
  Outpatient,                             !- Standards Building Type
  DressingRoom;                           !- Standards Space Type

OS:Rendering:Color,
  {f1aaa463-3bdb-4701-85d8-7fb8787f0151}, !- Handle
  Outpatient DressingRoom,                !- Name
  136,                                    !- Rendering Red Value
  78,                                     !- Rendering Green Value
  222;                                    !- Rendering Blue Value

OS:SpaceType,
  {2ffe2c6e-f4fb-4d2d-bd89-e47fc36c486a}, !- Handle
  Outpatient ElevatorPumpRoom - ComStock 90.1-2004, !- Name
  ,                                       !- Default Construction Set Name
  {3fa91430-3785-4260-9ea1-bc64093c0a83}, !- Default Schedule Set Name
  {ba386f76-f447-4b01-b8e3-725c87da3500}, !- Group Rendering Name
  {9ef0c5c7-4e27-432d-a2e9-711ecf757819}, !- Design Specification Outdoor Air Object Name
  ,                                       !- Standards Template
  Outpatient,                             !- Standards Building Type
  ElevatorPumpRoom;                       !- Standards Space Type

OS:Rendering:Color,
  {ba386f76-f447-4b01-b8e3-725c87da3500}, !- Handle
  Outpatient ElevatorPumpRoom,            !- Name
  41,                                     !- Rendering Red Value
  31,                                     !- Rendering Green Value
  169;                                    !- Rendering Blue Value

OS:SpaceType,
  {39d725bd-0a8e-479f-b504-b03a01037dfd}, !- Handle
  Outpatient Anesthesia - ComStock 90.1-2004, !- Name
  ,                                       !- Default Construction Set Name
  {4b0db9bc-5744-47b6-88db-398c45182b23}, !- Default Schedule Set Name
  {2e18a748-82c7-4ac3-a58b-af33b039ee60}, !- Group Rendering Name
  {3657cde1-767f-4f75-b31f-4bb1ccc5a146}, !- Design Specification Outdoor Air Object Name
  ,                                       !- Standards Template
  Outpatient,                             !- Standards Building Type
  Anesthesia;                             !- Standards Space Type

OS:Rendering:Color,
  {2e18a748-82c7-4ac3-a58b-af33b039ee60}, !- Handle
  Outpatient Anesthesia,                  !- Name
  204,                                    !- Rendering Red Value
  120,                                    !- Rendering Green Value
  230;                                    !- Rendering Blue Value

OS:SpaceType,
  {7a3e94ca-f41f-4b29-a8f9-4da2e4440795}, !- Handle
  Outpatient IT_Room - ComStock 90.1-2004, !- Name
  ,                                       !- Default Construction Set Name
  {7313bbf1-5693-4314-8cac-71bcbc0ddf11}, !- Default Schedule Set Name
  {28e55aa2-ba40-4166-8c39-335e129c0ccf}, !- Group Rendering Name
  {ccbc02b2-1398-4ffb-8d32-3df9ea9dd347}, !- Design Specification Outdoor Air Object Name
  ,                                       !- Standards Template
  Outpatient,                             !- Standards Building Type
  IT_Room;                                !- Standards Space Type

OS:Rendering:Color,
  {28e55aa2-ba40-4166-8c39-335e129c0ccf}, !- Handle
  Outpatient IT_Room,                     !- Name
  41,                                     !- Rendering Red Value
  31,                                     !- Rendering Green Value
  169;                                    !- Rendering Blue Value

OS:SpaceType,
  {7566edda-c8e3-4d90-bfe8-ae1debf9c58c}, !- Handle
  Outpatient MRI_Control - ComStock 90.1-2004, !- Name
  ,                                       !- Default Construction Set Name
  {01bf93d7-784f-4717-8d78-08d30dc3ff48}, !- Default Schedule Set Name
  {4e51825a-1a4a-48a4-8330-c6ba8fb154c2}, !- Group Rendering Name
  {47500a2c-5532-4a45-977b-dedeb536d507}, !- Design Specification Outdoor Air Object Name
  ,                                       !- Standards Template
  Outpatient,                             !- Standards Building Type
  MRI_Control;                            !- Standards Space Type

OS:Rendering:Color,
  {4e51825a-1a4a-48a4-8330-c6ba8fb154c2}, !- Handle
  Outpatient MRI_Control,                 !- Name
  136,                                    !- Rendering Red Value
  78,                                     !- Rendering Green Value
  222;                                    !- Rendering Blue Value

OS:SpaceType,
  {e1e55541-5589-451e-8c18-9db67950e7b1}, !- Handle
  Outpatient ProcedureRoom - ComStock 90.1-2004, !- Name
  ,                                       !- Default Construction Set Name
  {ae703ebd-618b-43aa-9acd-fdf22c7a3aa1}, !- Default Schedule Set Name
  {a695d270-f43e-47e1-9c40-a456a5ec8f25}, !- Group Rendering Name
  {3d13d701-3369-419b-976b-639d2101a1f9}, !- Design Specification Outdoor Air Object Name