
OS:Version,
  {75b79916-f9a7-44b5-9747-b1c4e1c503e0}, !- Handle
  3.8.0;                                  !- Version Identifier

OS:Facility,
  {51b0c57e-03b2-4045-b223-29cf1038272c}; !- Handle

OS:Site,
  {8a210212-2a47-45f0-8fa0-afb3fc635418}, !- Handle
  Bob Sikes_FL_USA,                       !- Name
  30.78,                                  !- Latitude {deg}
  -86.52,                                 !- Longitude {deg}
  -6,                                     !- Time Zone {hr}
  56,                                     !- Elevation {m}
  City;                                   !- Terrain

OS:SimulationControl,
  {0974aba1-aef5-4959-a1c7-6f109612d0a0}, !- Handle
  ,                                       !- Do Zone Sizing Calculation
  ,                                       !- Do System Sizing Calculation
  ,                                       !- Do Plant Sizing Calculation
  No,                                     !- Run Simulation for Sizing Periods
  Yes,                                    !- Run Simulation for Weather File Run Periods
  ,                                       !- Loads Convergence Tolerance Value {W}
  ,                                       !- Temperature Convergence Tolerance Value {deltaC}
  ,                                       !- Solar Distribution
  ,                                       !- Maximum Number of Warmup Days
  ,                                       !- Minimum Number of Warmup Days
  No,                                     !- Do HVAC Sizing Simulation for Sizing Periods
  1;                                      !- Maximum Number of HVAC Sizing Simulation Passes

OS:Sizing:Parameters,
  {3da480f4-d424-45e0-8ca5-bbcfe18dd683}, !- Handle
  1.25,                                   !- Heating Sizing Factor
  1.15;                                   !- Cooling Sizing Factor

OS:Timestep,
  {a21bb15a-f3c3-4036-b69f-0000556d9e5c}, !- Handle
  4;                                      !- Number of Timesteps per Hour

OS:ShadowCalculation,
  {9f16d1b3-24c9-49ab-b38f-e84508235aa8}, !- Handle
  PolygonClipping,                        !- Shading Calculation Method
  ,                                       !- Shading Calculation Update Frequency Method
  20,                                     !- Shading Calculation Update Frequency
  15000,                                  !- Maximum Figures in Shadow Overlap Calculations
  ,                                       !- Polygon Clipping Algorithm
  512,                                    !- Pixel Counting Resolution
  ,                                       !- Sky Diffuse Modeling Algorithm
  No,                                     !- Output External Shading Calculation Results
  No,                                     !- Disable Self-Shading Within Shading Zone Groups
  No;                                     !- Disable Self-Shading From Shading Zone Groups to Other Zones

OS:HeatBalanceAlgorithm,
  {87aa76f2-a23a-41be-8dd3-9722d6352ec1}, !- Handle
  ConductionTransferFunction,             !- Algorithm
  200;                                    !- Surface Temperature Upper Limit {C}

OS:RunPeriod,
  {a3906807-a5ee-4ddc-90cc-01587e84b427}, !- Handle
  Run Period 1,                           !- Name
  1,                                      !- Begin Month
  1,                                      !- Begin Day of Month
  12,                                     !- End Month
  31,                                     !- End Day of Month
  ,                                       !- Use Weather File Holidays and Special Days
  ,                                       !- Use Weather File Daylight Saving Period
  ,                                       !- Apply Weekend Holiday Rule
  ,                                       !- Use Weather File Rain Indicators
  ,                                       !- Use Weather File Snow Indicators
  ;                                       !- Number of Times Runperiod to be Repeated

OS:LifeCycleCost:Parameters,
  {3247a797-d0c7-41a1-a88d-65c0c643cc5c}, !- Handle
  ,                                       !- Analysis Type
  ,                                       !- Discounting Convention
  ,                                       !- Inflation Approach
  ,                                       !- Real Discount Rate
  ,                                       !- Nominal Discount Rate
  ,                                       !- Inflation
  ,                                       !- Base Date Month
  ,                                       !- Base Date Year
  ,                                       !- Service Date Month
  ,                                       !- Service Date Year
  ;                                       !- Length of Study Period in Years

OS:WeatherFile,
  {7f5c0342-4b66-43b7-9f08-53a03fe0637b}, !- Handle
  Bob Sikes,                              !- City
  FL,                                     !- State Province Region
  USA,                                    !- Country
  customized weather file,                !- Data Source
  722215,                                 !- WMO Number
  30.78,                                  !- Latitude {deg}
  -86.52,                                 !- Longitude {deg}
  -6,                                     !- Time Zone {hr}
  56,                                     !- Elevation {m}
  /weather/G1200910.epw,                  !- Url
  226BE93E,                               !- Checksum
  ,                                       !- Start Date Actual Year
  Friday;                                 !- Start Day of Week

OS:Site:WaterMainsTemperature,
  {c9d45ff2-12de-4008-88bd-e037ef3c57b2}, !- Handle
  Correlation,                            !- Calculation Method
  ,                                       !- Temperature Schedule Name
  19.4216666666667,                       !- Annual Average Outdoor Air Temperature {C}
  19.74;                                  !- Maximum Difference In Monthly Average Outdoor Air Temperatures {deltaC}

OS:SizingPeriod:DesignDay,
  {1d14ad6e-d845-48a7-9e4a-9f551c8b2a47}, !- Handle
  Bob Sikes Ann Clg .4% Condns DB=>MWB 1, !- Name
  35.8,                                   !- Maximum Dry-Bulb Temperature {C}
  11.3,                                   !- Daily Dry-Bulb Temperature Range {deltaC}
  100654,                                 !- Barometric Pressure {Pa}
  2.9,                                    !- Wind Speed {m/s}
  300,                                    !- Wind Direction {deg}
  ,                                       !- Sky Clearness
  No,                                     !- Rain Indicator
  No,                                     !- Snow Indicator
  21,                                     !- Day of Month
  7,                                      !- Month
  SummerDesignDay,                        !- Day Type
  No,                                     !- Daylight Saving Time Indicator
  Wetbulb,                                !- Humidity Condition Type
  ,                                       !- Humidity Condition Day Schedule Name
  24.6,                                   !- Wetbulb or DewPoint at Maximum Dry-Bulb {C}
  ,                                       !- Humidity Ratio at Maximum Dry-Bulb {kgWater/kgDryAir}
  ,                                       !- Enthalpy at Maximum Dry-Bulb {J/kg}
  DefaultMultipliers,                     !- Dry-Bulb Temperature Range Modifier Type
  ,                                       !- Dry-Bulb Temperature Range Modifier Day Schedule Name
  ASHRAETau,                              !- Solar Model Indicator
  ,                                       !- Beam Solar Day Schedule Name
  ,                                       !- Diffuse Solar Day Schedule Name
  0.437,                                  !- ASHRAE Clear Sky Optical Depth for Beam Irradiance {dimensionless}
  2.257;                                  !- ASHRAE Clear Sky Optical Depth for Diffuse Irradiance {dimensionless}

OS:SizingPeriod:DesignDay,
  {4172841e-2619-4e77-8c76-488e530979c8}, !- Handle
  Bob Sikes Ann Clg .4% Condns WB=>MDB 1, !- Name
  31.6,                                   !- Maximum Dry-Bulb Temperature {C}
  11.3,                                   !- Daily Dry-Bulb Temperature Range {deltaC}
  100654,                                 !- Barometric Pressure {Pa}
  2.9,                                    !- Wind Speed {m/s}
  300,                                    !- Wind Direction {deg}
  ,                                       !- Sky Clearness
  No,                                     !- Rain Indicator
  No,                                     !- Snow Indicator
  21,                                     !- Day of Month
  7,                                      !- Month
  SummerDesignDay,                        !- Day Type
  No,                                     !- Daylight Saving Time Indicator
  Wetbulb,                                !- Humidity Condition Type
  ,                                       !- Humidity Condition Day Schedule Name
  26.8,                                   !- Wetbulb or DewPoint at Maximum Dry-Bulb {C}
  ,                                       !- Humidity Ratio at Maximum Dry-Bulb {kgWater/kgDryAir}
  ,                                       !- Enthalpy at Maximum Dry-Bulb {J/kg}
  DefaultMultipliers,                     !- Dry-Bulb Temperature Range Modifier Type
  ,                                       !- Dry-Bulb Temperature Range Modifier Day Schedule Name
  ASHRAETau,                              !- Solar Model Indicator
  ,                                       !- Beam Solar Day Schedule Name
  ,                                       !- Diffuse Solar Day Schedule Name
  0.437,                                  !- ASHRAE Clear Sky Optical Depth for Beam Irradiance {dimensionless}
  2.257;                                  !- ASHRAE Clear Sky Optical Depth for Diffuse Irradiance {dimensionless}

OS:SizingPeriod:DesignDay,
  {816a08da-6344-4f3f-b423-0a0ec87e026e}, !- Handle
  Bob Sikes Ann Htg 99.6% Condns DB 1,    !- Name
  -4.1,                                   !- Maximum Dry-Bulb Temperature {C}
  0,                                      !- Daily Dry-Bulb Temperature Range {deltaC}
  100654,                                 !- Barometric Pressure {Pa}
  0.7,                                    !- Wind Speed {m/s}
  340,                                    !- Wind Direction {deg}
  0,                                      !- Sky Clearness
  No,                                     !- Rain Indicator
  No,                                     !- Snow Indicator
  21,                                     !- Day of Month
  1,                                      !- Month
  WinterDesignDay,                        !- Day Type
  No,                                     !- Daylight Saving Time Indicator
  Wetbulb,                                !- Humidity Condition Type
  ,                                       !- Humidity Condition Day Schedule Name
  -4.1,                                   !- Wetbulb or DewPoint at Maximum Dry-Bulb {C}
  ,                                       !- Humidity Ratio at Maximum Dry-Bulb {kgWater/kgDryAir}
  ,                                       !- Enthalpy at Maximum Dry-Bulb {J/kg}
  DefaultMultipliers,                     !- Dry-Bulb Temperature Range Modifier Type
  ,                                       !- Dry-Bulb Temperature Range Modifier Day Schedule Name
  ASHRAEClearSky;                         !- Solar Model Indicator

OS:SizingPeriod:DesignDay,
  {f233b70e-4028-47be-8d75-11fd1d78ef4d}, !- Handle
  Bob Sikes August .4% Condns DB=>MCWB 1, !- Name
  36.3,                                   !- Maximum Dry-Bulb Temperature {C}
  10.7,                                   !- Daily Dry-Bulb Temperature Range {deltaC}
  100654,                                 !- Barometric Pressure {Pa}
  2.9,                                    !- Wind Speed {m/s}
  300,                                    !- Wind Direction {deg}
  ,                                       !- Sky Clearness
  No,                                     !- Rain Indicator
  No,                                     !- Snow Indicator
  21,                                     !- Day of Month
  8,                                      !- Month
  SummerDesignDay,                        !- Day Type
  No,                                     !- Daylight Saving Time Indicator
  Wetbulb,                                !- Humidity Condition Type
  ,                                       !- Humidity Condition Day Schedule Name
  25.4,                                   !- Wetbulb or DewPoint at Maximum Dry-Bulb {C}
  ,                                       !- Humidity Ratio at Maximum Dry-Bulb {kgWater/kgDryAir}
  ,                                       !- Enthalpy at Maximum Dry-Bulb {J/kg}
  DefaultMultipliers,                     !- Dry-Bulb Temperature Range Modifier Type
  ,                                       !- Dry-Bulb Temperature Range Modifier Day Schedule Name
  ASHRAETau,                              !- Solar Model Indicator
  ,                                       !- Beam Solar Day Schedule Name
  ,                                       !- Diffuse Solar Day Schedule Name
  0.426,                                  !- ASHRAE Clear Sky Optical Depth for Beam Irradiance {dimensionless}
  2.32;                                   !- ASHRAE Clear Sky Optical Depth for Diffuse Irradiance {dimensionless}

OS:SizingPeriod:DesignDay,
  {c4052ab6-78c7-4971-866a-a79ba555e305}, !- Handle
  Bob Sikes October .4% Condns DB=>MCWB 1, !- Name
  32.1,                                   !- Maximum Dry-Bulb Temperature {C}
  13.9,                                   !- Daily Dry-Bulb Temperature Range {deltaC}
  100654,                                 !- Barometric Pressure {Pa}
  2.9,                                    !- Wind Speed {m/s}
  300,                                    !- Wind Direction {deg}
  ,                                       !- Sky Clearness
  No,                                     !- Rain Indicator
  No,                                     !- Snow Indicator
  21,                                     !- Day of Month
  10,                                     !- Month
  SummerDesignDay,                        !- Day Type
  No,                                     !- Daylight Saving Time Indicator
  Wetbulb,                                !- Humidity Condition Type
  ,                                       !- Humidity Condition Day Schedule Name
  23.4,                                   !- Wetbulb or DewPoint at Maximum Dry-Bulb {C}
  ,                                       !- Humidity Ratio at Maximum Dry-Bulb {kgWater/kgDryAir}
  ,                                       !- Enthalpy at Maximum Dry-Bulb {J/kg}
  DefaultMultipliers,                     !- Dry-Bulb Temperature Range Modifier Type
  ,                                       !- Dry-Bulb Temperature Range Modifier Day Schedule Name
  ASHRAETau,                              !- Solar Model Indicator
  ,                                       !- Beam Solar Day Schedule Name
  ,                                       !- Diffuse Solar Day Schedule Name
  0.37,                                   !- ASHRAE Clear Sky Optical Depth for Beam Irradiance {dimensionless}
  2.544;                                  !- ASHRAE Clear Sky Optical Depth for Diffuse Irradiance {dimensionless}

OS:SizingPeriod:DesignDay,
  {102abf60-7987-4ba4-88ac-95a347d69eb2}, !- Handle
  Bob Sikes September .4% Condns DB=>MCWB 1, !- Name
  34.2,                                   !- Maximum Dry-Bulb Temperature {C}
  11.5,                                   !- Daily Dry-Bulb Temperature Range {deltaC}
  100654,                                 !- Barometric Pressure {Pa}
  2.9,                                    !- Wind Speed {m/s}
  300,                                    !- Wind Direction {deg}
  ,                                       !- Sky Clearness
  No,                                     !- Rain Indicator
  No,                                     !- Snow Indicator
  21,                                     !- Day of Month
  9,                                      !- Month
  SummerDesignDay,                        !- Day Type
  No,                                     !- Daylight Saving Time Indicator
  Wetbulb,                                !- Humidity Condition Type
  ,                                       !- Humidity Condition Day Schedule Name
  23.4,                                   !- Wetbulb or DewPoint at Maximum Dry-Bulb {C}
  ,                                       !- Humidity Ratio at Maximum Dry-Bulb {kgWater/kgDryAir}
  ,                                       !- Enthalpy at Maximum Dry-Bulb {J/kg}
  DefaultMultipliers,                     !- Dry-Bulb Temperature Range Modifier Type
  ,                                       !- Dry-Bulb Temperature Range Modifier Day Schedule Name
  ASHRAETau,                              !- Solar Model Indicator
  ,                                       !- Beam Solar Day Schedule Name
  ,                                       !- Diffuse Solar Day Schedule Name
  0.397,                                  !- ASHRAE Clear Sky Optical Depth for Beam Irradiance {dimensionless}
  2.454;                                  !- ASHRAE Clear Sky Optical Depth for Diffuse Irradiance {dimensionless}

OS:ClimateZones,
  {a53ea702-e507-4729-b51f-c12dfd808759}, !- Handle
  ASHRAE,                                 !- Climate Zone Institution Name 1
  ANSI/ASHRAE Standard 169,               !- Climate Zone Document Name 1
  2006,                                   !- Climate Zone Document Year 1
  ASHRAE 169-2013-2A;                     !- Climate Zone Value 1

OS:RunPeriodControl:DaylightSavingTime,
  {5d6aab1e-ac9e-4a21-84b9-1cdfa226c773}, !- Handle
  2nd Sunday in March,                    !- Start Date
  1st Sunday in November;                 !- End Date

OS:YearDescription,
  {b98a8113-056a-4de3-b815-38412dee2ac7}, !- Handle
  2018,                                   !- Calendar Year
  ,                                       !- Day of Week for Start Day
  ;                                       !- Is Leap Year

OS:Building,
  {be35860f-831e-48b5-a141-a69dfdf31af2}, !- Handle
  ComStock DOE Ref Pre-1980|Outpatient,   !- Name
  ,                                       !- Building Sector Type
  225,                                    !- North Axis {deg}
  ,                                       !- Nominal Floor to Floor Height {m}
  ,                                       !- Space Type Name
  {7ee23a0d-24f3-4551-a151-b5f7ed11f644}, !- Default Construction Set Name
  {660467fb-9c45-4a90-a5cf-362093bb4455}, !- Default Schedule Set Name
  ,                                       !- Standards Number of Stories
  ,                                       !- Standards Number of Above Ground Stories
  ,                                       !- Standards Template
  Outpatient;                             !- Standards Building Type

OS:AdditionalProperties,
  {ef8ddbab-fe44-4321-93d0-6c0ede322480}, !- Handle
  {be35860f-831e-48b5-a141-a69dfdf31af2}, !- Object Name
  Building,                               !- Feature Name 1
  String,                                 !- Feature Data Type 1
  2085,                                   !- Feature Value 1
  Soil Conductivity,                      !- Feature Name 2
  Double,                                 !- Feature Data Type 2
  1.1000000000000001,                     !- Feature Value 2
  Undisturbed Ground Temperature,         !- Feature Name 3
  Double,                                 !- Feature Data Type 3
  20.899999999999999,                     !- Feature Value 3
  airtightness,                           !- Feature Name 4
  String,                                 !- Feature Data Type 4
  10.0,                                   !- Feature Value 4
  american_housing_survey_region,         !- Feature Name 5
  String,                                 !- Feature Data Type 5
  Non-CBSA South Atlantic,                !- Feature Value 5
  aspect_ratio,                           !- Feature Name 6
  String,                                 !- Feature Data Type 6
  2,                                      !- Feature Value 6
  baseline_hvac_sizing,                   !- Feature Name 7
  String,                                 !- Feature Data Type 7
  hardsize,                               !- Feature Value 7
  baseline_window_type,                   !- Feature Name 8
  String,                                 !- Feature Data Type 8
  Double - No LowE - Tinted/Reflective - Aluminum, !- Feature Value 8
  building_shape,                         !- Feature Name 9
  String,                                 !- Feature Data Type 9
  6,                                      !- Feature Value 9
  building_size_lighting_tech,            !- Feature Name 10
  String,                                 !- Feature Data Type 10
  small,                                  !- Feature Value 10
  building_subtype,                       !- Feature Name 11
  String,                                 !- Feature Data Type 11
  NA,                                     !- Feature Value 11
  building_type,                          !- Feature Name 12
  String,                                 !- Feature Data Type 12
  outpatient,                             !- Feature Value 12
  cambium_grid_region,                    !- Feature Name 13
  String,                                 !- Feature Data Type 13
  SRSOc,                                  !- Feature Value 13
  census_division_name,                   !- Feature Name 14
  String,                                 !- Feature Data Type 14
  South Atlantic,                         !- Feature Value 14
  census_division_name_recs,              !- Feature Name 15
  String,                                 !- Feature Data Type 15
  South Atlantic,                         !- Feature Value 15
  census_region_name,                     !- Feature Name 16
  String,                                 !- Feature Data Type 16
  South,                                  !- Feature Value 16
  climate_zone,                           !- Feature Name 17
  String,                                 !- Feature Data Type 17
  2A,                                     !- Feature Value 17
  climate_zone_ashrae_2006,               !- Feature Name 18
  String,                                 !- Feature Data Type 18
  2A,                                     !- Feature Value 18
  climate_zone_building_america,          !- Feature Name 19
  String,                                 !- Feature Data Type 19
  Hot-Humid,                              !- Feature Value 19
  cluster_id,                             !- Feature Name 20
  String,                                 !- Feature Data Type 20
  74,                                     !- Feature Value 20
  cluster_name,                           !- Feature Name 21
  String,                                 !- Feature Data Type 21
  the Central Gulf Coast Area,            !- Feature Value 21
  cook_broiler_counts,                    !- Feature Name 22
  String,                                 !- Feature Data Type 22
  0.0,                                    !- Feature Value 22
  cook_dining_type,                       !- Feature Name 23
  String,                                 !- Feature Data Type 23
  None,                                   !- Feature Value 23
  cook_fryers_counts,                     !- Feature Name 24
  String,                                 !- Feature Data Type 24
  0.0,                                    !- Feature Value 24
  cook_fuel_broiler,                      !- Feature Name 25
  String,                                 !- Feature Data Type 25
  Gas,                                    !- Feature Value 25
  cook_fuel_fryer,                        !- Feature Name 26
  String,                                 !- Feature Data Type 26
  Electric,                               !- Feature Value 26
  cook_fuel_griddle,                      !- Feature Name 27
  String,                                 !- Feature Data Type 27
  Gas,                                    !- Feature Value 27
  cook_fuel_oven,                         !- Feature Name 28
  String,                                 !- Feature Data Type 28
  Gas,                                    !- Feature Value 28
  cook_fuel_range,                        !- Feature Name 29
  String,                                 !- Feature Data Type 29
  Gas,                                    !- Feature Value 29
  cook_fuel_steamer,                      !- Feature Name 30
  String,                                 !- Feature Data Type 30
  Gas,                                    !- Feature Value 30
  cook_griddles_counts,                   !- Feature Name 31
  String,                                 !- Feature Data Type 31
  0.0,                                    !- Feature Value 31
  cook_ovens_counts,                      !- Feature Name 32
  String,                                 !- Feature Data Type 32
  0.0,                                    !- Feature Value 32
  cook_ranges_counts,                     !- Feature Name 33
  String,                                 !- Feature Data Type 33
  0.0,                                    !- Feature Value 33
  cook_steamers_counts,                   !- Feature Name 34
  String,                                 !- Feature Data Type 34
  0.0,                                    !- Feature Value 34
  county_id,                              !- Feature Name 35
  String,                                 !- Feature Data Type 35
  G1200910,                               !- Feature Value 35
  energy_code_compliance_during_original_building_construction, !- Feature Name 36
  String,                                 !- Feature Data Type 36
  comply,                                 !- Feature Value 36
  energy_code_compliance_exterior_lighting, !- Feature Name 37
  String,                                 !- Feature Data Type 37
  comply,                                 !- Feature Value 37
  energy_code_compliance_hvac,            !- Feature Name 38
  String,                                 !- Feature Data Type 38
  comply,                                 !- Feature Value 38
  energy_code_compliance_interior_equipment, !- Feature Name 39
  String,                                 !- Feature Data Type 39
  comply,                                 !- Feature Value 39
  energy_code_compliance_interior_lighting, !- Feature Name 40
  String,                                 !- Feature Data Type 40
  lead,                                   !- Feature Value 40
  energy_code_compliance_roof,            !- Feature Name 41
  String,                                 !- Feature Data Type 41
  comply,                                 !- Feature Value 41
  energy_code_compliance_service_water_heating, !- Feature Name 42
  String,                                 !- Feature Data Type 42
  comply,                                 !- Feature Value 42
  energy_code_compliance_walls,           !- Feature Name 43
  String,                                 !- Feature Data Type 43
  comply,                                 !- Feature Value 43
  energy_code_compliance_windows,         !- Feature Name 44
  String,                                 !- Feature Data Type 44
  comply,                                 !- Feature Value 44
  energy_code_followed_during_last_exterior_lighting_replacement, !- Feature Name 45
  String,                                 !- Feature Data Type 45
  ComStock DOE Ref 1980-2004,             !- Feature Value 45
  energy_code_followed_during_last_hvac_replacement, !- Feature Name 46
  String,                                 !- Feature Data Type 46
  ComStock DOE Ref 1980-2004,             !- Feature Value 46
  energy_code_followed_during_last_interior_equipment_replacement, !- Feature Name 47
  String,                                 !- Feature Data Type 47
  ComStock 90.1-2007,                     !- Feature Value 47
  energy_code_followed_during_last_interior_lighting_replacement, !- Feature Name 48
  String,                                 !- Feature Data Type 48
  ComStock 90.1-2019,                     !- Feature Value 48
  energy_code_followed_during_last_roof_replacement, !- Feature Name 49
  String,                                 !- Feature Data Type 49
  ComStock DOE Ref Pre-1980,              !- Feature Value 49
  energy_code_followed_during_last_service_water_heating_replacement, !- Feature Name 50
  String,                                 !- Feature Data Type 50
  ComStock 90.1-2007,                     !- Feature Value 50
  energy_code_followed_during_last_walls_replacement, !- Feature Name 51
  String,                                 !- Feature Data Type 51
  ComStock DOE Ref Pre-1980,              !- Feature Value 51
  energy_code_followed_during_last_windows_replacement, !- Feature Name 52
  String,                                 !- Feature Data Type 52
  ComStock DOE Ref Pre-1980,              !- Feature Value 52
  energy_code_followed_during_original_building_construction, !- Feature Name 53
  String,                                 !- Feature Data Type 53
  ComStock DOE Ref Pre-1980,              !- Feature Value 53
  energy_code_in_force_during_last_exterior_lighting_replacement, !- Feature Name 54
  String,                                 !- Feature Data Type 54
  ComStock DOE Ref 1980-2004,             !- Feature Value 54
  energy_code_in_force_during_last_hvac_replacement, !- Feature Name 55
  String,                                 !- Feature Data Type 55
  ComStock DOE Ref 1980-2004,             !- Feature Value 55
  energy_code_in_force_during_last_interior_equipment_replacement, !- Feature Name 56
  String,                                 !- Feature Data Type 56
  ComStock 90.1-2007,                     !- Feature Value 56