
OS:Version,
  {02b7a03d-03a7-426b-95f2-05544a671e37}, !- Handle
  3.6.1;                                  !- Version Identifier

OS:Facility,
  {ba2c07fc-d743-45ff-b948-fd2755630615}; !- Handle

OS:Site,
  {0f4654e6-8445-42ba-bfc4-499189e6e122}, !- Handle
  Chicago Ohare Intl Ap,                  !- Name
  41.98,                                  !- Latitude {deg}
  -87.92,                                 !- Longitude {deg}
  -6,                                     !- Time Zone {hr}
  201,                                    !- Elevation {m}
  City;                                   !- Terrain

OS:SimulationControl,
  {bd17e28a-7128-442a-a00e-d40324b8f4eb}, !- Handle
  ,                                       !- Do Zone Sizing Calculation
  ,                                       !- Do System Sizing Calculation
  ,                                       !- Do Plant Sizing Calculation
  No,                                     !- Run Simulation for Sizing Periods
  Yes,                                    !- Run Simulation for Weather File Run Periods
  ,                                       !- Loads Convergence Tolerance Value {W}
  ,                                       !- Temperature Convergence Tolerance Value {deltaC}
  ,                                       !- Solar Distribution
  ,                                       !- Maximum Number of Warmup Days
  ,                                       !- Minimum Number of Warmup Days
  No,                                     !- Do HVAC Sizing Simulation for Sizing Periods
  1;                                      !- Maximum Number of HVAC Sizing Simulation Passes

OS:Sizing:Parameters,
  {1fd623f6-4f62-4cf5-bc08-a48e5054c3fa}, !- Handle
  1.25,                                   !- Heating Sizing Factor
  1.15;                                   !- Cooling Sizing Factor

OS:Timestep,
  {e776bc2e-6cd7-4055-afdc-2d842f73ddf6}, !- Handle
  4;                                      !- Number of Timesteps per Hour

OS:ShadowCalculation,
  {0f162ad0-fd60-4fb7-83e0-8b59c8fc79db}, !- Handle
  PolygonClipping,                        !- Shading Calculation Method
  ,                                       !- Shading Calculation Update Frequency Method
  20,                                     !- Shading Calculation Update Frequency
  15000,                                  !- Maximum Figures in Shadow Overlap Calculations
  ,                                       !- Polygon Clipping Algorithm
  512,                                    !- Pixel Counting Resolution
  ,                                       !- Sky Diffuse Modeling Algorithm
  No,                                     !- Output External Shading Calculation Results
  No,                                     !- Disable Self-Shading Within Shading Zone Groups
  No;                                     !- Disable Self-Shading From Shading Zone Groups to Other Zones

OS:HeatBalanceAlgorithm,
  {fae27b70-37f3-4c72-9324-57ae5159bdf6}, !- Handle
  ConductionTransferFunction,             !- Algorithm
  200;                                    !- Surface Temperature Upper Limit {C}

OS:RunPeriod,
  {04150501-9689-4373-b991-62b5a45bc88e}, !- Handle
  Run Period 1,                           !- Name
  1,                                      !- Begin Month
  1,                                      !- Begin Day of Month
  12,                                     !- End Month
  31,                                     !- End Day of Month
  ,                                       !- Use Weather File Holidays and Special Days
  ,                                       !- Use Weather File Daylight Saving Period
  ,                                       !- Apply Weekend Holiday Rule
  ,                                       !- Use Weather File Rain Indicators
  ,                                       !- Use Weather File Snow Indicators
  ;                                       !- Number of Times Runperiod to be Repeated

OS:LifeCycleCost:Parameters,
  {f1cadc06-5e1a-44ab-8789-261d48c8f84c}, !- Handle
  ,                                       !- Analysis Type
  ,                                       !- Discounting Convention
  ,                                       !- Inflation Approach
  ,                                       !- Real Discount Rate
  ,                                       !- Nominal Discount Rate
  ,                                       !- Inflation
  ,                                       !- Base Date Month
  ,                                       !- Base Date Year
  ,                                       !- Service Date Month
  ,                                       !- Service Date Year
  ;                                       !- Length of Study Period in Years

OS:Site:WaterMainsTemperature,
  {87ef86cc-4e28-4328-8042-562b9638a379}, !- Handle
  Correlation,                            !- Calculation Method
  ,                                       !- Temperature Schedule Name
  9.675,                                  !- Annual Average Outdoor Air Temperature {C}
  26.8;                                   !- Maximum Difference In Monthly Average Outdoor Air Temperatures {deltaC}

OS:ClimateZones,
  {65ef4921-7710-41f0-b523-c1e955693030}, !- Handle
  ASHRAE,                                 !- Climate Zone Institution Name 1
  ANSI/ASHRAE Standard 169,               !- Climate Zone Document Name 1
  2006,                                   !- Climate Zone Document Year 1
  ASHRAE 169-2013-5A,                     !- Climate Zone Value 1
  CEC,                                    !- Climate Zone Institution Name 2
  California Climate Zone Descriptions,   !- Climate Zone Document Name 2
  1995,                                   !- Climate Zone Document Year 2
  ;                                       !- Climate Zone Value 2

OS:Building,
  {815a1dcc-543a-460b-96e4-1d02ece3862d}, !- Handle
  ComStock DOE Ref Pre-1980|Warehouse,    !- Name
  ,                                       !- Building Sector Type
  135,                                    !- North Axis {deg}
  ,                                       !- Nominal Floor to Floor Height {m}
  ,                                       !- Space Type Name
  {96584533-021d-40d7-8eed-5bceafb1f7f1}, !- Default Construction Set Name
  {85abad24-794a-41a5-87d8-53f407ffeddd}, !- Default Schedule Set Name
  ,                                       !- Standards Number of Stories
  ,                                       !- Standards Number of Above Ground Stories
  ,                                       !- Standards Template
  Warehouse;                              !- Standards Building Type

OS:AdditionalProperties,
  {073a07b7-9182-4a78-a4e2-6354bb36ab1d}, !- Handle
  {815a1dcc-543a-460b-96e4-1d02ece3862d}, !- Object Name
  grid_region,                            !- Feature Name 1
  String,                                 !- Feature Data Type 1
  RFCWc,                                  !- Feature Value 1
  hvac_system_type,                       !- Feature Name 2
  String,                                 !- Feature Data Type 2
  PSZ-AC with gas boiler,                 !- Feature Value 2
  wall_as_constructed_template,           !- Feature Name 3
  String,                                 !- Feature Data Type 3
  ComStock DOE Ref Pre-1980,              !- Feature Value 3
  wall_template,                          !- Feature Name 4
  String,                                 !- Feature Data Type 4
  ComStock DOE Ref Pre-1980,              !- Feature Value 4
  roof_as_constructed_template,           !- Feature Name 5
  String,                                 !- Feature Data Type 5
  ComStock DOE Ref Pre-1980,              !- Feature Value 5
  roof_template,                          !- Feature Name 6
  String,                                 !- Feature Data Type 6
  ComStock DOE Ref Pre-1980,              !- Feature Value 6
  exterior_lighting_as_constructed_template, !- Feature Name 7
  String,                                 !- Feature Data Type 7
  ComStock DOE Ref Pre-1980,              !- Feature Value 7
  exterior_lighting_template,             !- Feature Name 8
  String,                                 !- Feature Data Type 8
  ComStock DOE Ref 1980-2004,             !- Feature Value 8
  interior_equipment_as_constructed_template, !- Feature Name 9
  String,                                 !- Feature Data Type 9
  ComStock DOE Ref Pre-1980,              !- Feature Value 9
  interior_equipment_template,            !- Feature Name 10
  String,                                 !- Feature Data Type 10
  ComStock DOE Ref 1980-2004,             !- Feature Value 10
  service_water_heating_as_constructed_template, !- Feature Name 11
  String,                                 !- Feature Data Type 11
  ComStock DOE Ref Pre-1980,              !- Feature Value 11
  service_water_heating_template,         !- Feature Name 12
  String,                                 !- Feature Data Type 12
  ComStock 90.1-2007,                     !- Feature Value 12
  hvac_as_constructed_template,           !- Feature Name 13
  String,                                 !- Feature Data Type 13
  ComStock DOE Ref Pre-1980,              !- Feature Value 13
  hvac_template,                          !- Feature Name 14
  String,                                 !- Feature Data Type 14
  ComStock 90.1-2007;                     !- Feature Value 14

OS:SpaceType,
  {4189de26-feb3-4e20-8424-e33e8d64272c}, !- Handle
  Warehouse Office - ComStock DOE Ref Pre-1980, !- Name
  ,                                       !- Default Construction Set Name
  {bc967e0d-4f26-442a-837d-ad6198c150ba}, !- Default Schedule Set Name
  {ce876450-9e0d-4a1f-b623-5e9b4adea884}, !- Group Rendering Name
  {0c0c87f1-ee21-4b2f-8537-76160e7e4054}, !- Design Specification Outdoor Air Object Name
  ,                                       !- Standards Template
  Warehouse,                              !- Standards Building Type
  Office;                                 !- Standards Space Type

OS:Rendering:Color,
  {ce876450-9e0d-4a1f-b623-5e9b4adea884}, !- Handle
  Warehouse Office,                       !- Name
  120,                                    !- Rendering Red Value
  230,                                    !- Rendering Green Value
  199;                                    !- Rendering Blue Value

OS:SpaceType,
  {23548b9c-4439-477a-af83-2f1965764ef5}, !- Handle
  Warehouse Fine - ComStock DOE Ref Pre-1980, !- Name
  ,                                       !- Default Construction Set Name
  {f3b2b3c9-e50f-4063-b9c1-de8dcff42807}, !- Default Schedule Set Name
  {753b118e-fe27-4b40-9454-3b93770b1c2f}, !- Group Rendering Name
  {0cc7d295-5e8d-4159-87f1-7043e0a4a3ff}, !- Design Specification Outdoor Air Object Name
  ,                                       !- Standards Template
  Warehouse,                              !- Standards Building Type
  Fine;                                   !- Standards Space Type

OS:Rendering:Color,
  {753b118e-fe27-4b40-9454-3b93770b1c2f}, !- Handle
  Warehouse Fine,                         !- Name
  120,                                    !- Rendering Red Value
  149,                                    !- Rendering Green Value
  230;                                    !- Rendering Blue Value

OS:SpaceType,
  {f0432a62-bd4b-4b50-b753-3d72771dc656}, !- Handle
  Warehouse Bulk - ComStock DOE Ref Pre-1980, !- Name
  ,                                       !- Default Construction Set Name
  {989784bd-ce7c-431a-b020-35c43a6aa976}, !- Default Schedule Set Name
  {ea0cf67a-e9cb-442d-9a77-3108457125ec}, !- Group Rendering Name
  {94ef5703-6991-4d95-a57e-2b5786fe7fa0}, !- Design Specification Outdoor Air Object Name
  ,                                       !- Standards Template
  Warehouse,                              !- Standards Building Type
  Bulk;                                   !- Standards Space Type

OS:Rendering:Color,
  {ea0cf67a-e9cb-442d-9a77-3108457125ec}, !- Handle
  Warehouse Bulk,                         !- Name
  41,                                     !- Rendering Red Value
  31,                                     !- Rendering Green Value
  169;                                    !- Rendering Blue Value

OS:BuildingStory,
  {22b84c4e-550c-4dbe-959e-ac31132e3dae}, !- Handle
  Story Ground,                           !- Name
  0,                                      !- Nominal Z Coordinate {m}
  8.5344,                                 !- Nominal Floor to Floor Height {m}
  ,                                       !- Default Construction Set Name
  ,                                       !- Default Schedule Set Name
  ;                                       !- Group Rendering Name

OS:Space,
  {426573eb-ff8a-4b29-ad6d-4ada955e3b19}, !- Handle
  Warehouse Bulk A end_a - Story Ground,  !- Name
  {f0432a62-bd4b-4b50-b753-3d72771dc656}, !- Space Type Name
  ,                                       !- Default Construction Set Name
  ,                                       !- Default Schedule Set Name
  -0,                                     !- Direction of Relative North {deg}
  -57.5600092425288,                      !- X Origin {m}
  -28.7800046212644,                      !- Y Origin {m}
  0,                                      !- Z Origin {m}
  {22b84c4e-550c-4dbe-959e-ac31132e3dae}, !- Building Story Name
  {9c5b2699-392c-470b-ba31-b4a20ed879fd}; !- Thermal Zone Name

OS:Surface,
  {4a41db24-b352-46bc-aefa-1229438e13d4}, !- Handle
  Surface 1,                              !- Name
  Floor,                                  !- Surface Type
  {b4f79aa1-92e2-4f70-92c2-23b234793502}, !- Construction Name
  {426573eb-ff8a-4b29-ad6d-4ada955e3b19}, !- Space Name
  GroundFCfactorMethod,                   !- Outside Boundary Condition
  ,                                       !- Outside Boundary Condition Object
  NoSun,                                  !- Sun Exposure
  NoWind,                                 !- Wind Exposure
  ,                                       !- View Factor to Ground
  ,                                       !- Number of Vertices
  -7.105427357601e-15, -3.5527136788005e-15, 0, !- X,Y,Z Vertex 1 {m}
  -7.105427357601e-15, 4.572, 0,          !- X,Y,Z Vertex 2 {m}
  4.572, 4.572, 0,                        !- X,Y,Z Vertex 3 {m}
  4.572, -3.5527136788005e-15, 0;         !- X,Y,Z Vertex 4 {m}

OS:Surface,
  {3224e8ae-1767-455b-a136-cb41a18763fa}, !- Handle
  Surface 2,                              !- Name
  Wall,                                   !- Surface Type
  ,                                       !- Construction Name
  {426573eb-ff8a-4b29-ad6d-4ada955e3b19}, !- Space Name
  Outdoors,                               !- Outside Boundary Condition
  ,                                       !- Outside Boundary Condition Object
  SunExposed,                             !- Sun Exposure
  WindExposed,                            !- Wind Exposure
  ,                                       !- View Factor to Ground
  ,                                       !- Number of Vertices
  -7.105427357601e-15, 4.572, 8.5344,     !- X,Y,Z Vertex 1 {m}
  -7.105427357601e-15, 4.572, 0,          !- X,Y,Z Vertex 2 {m}
  -7.105427357601e-15, -3.5527136788005e-15, 0, !- X,Y,Z Vertex 3 {m}
  -7.105427357601e-15, -3.5527136788005e-15, 8.5344; !- X,Y,Z Vertex 4 {m}

OS:Surface,
  {35dbdd8e-f17c-4e2d-a588-d2525da5c693}, !- Handle
  Surface 3,                              !- Name
  Wall,                                   !- Surface Type
  ,                                       !- Construction Name
  {426573eb-ff8a-4b29-ad6d-4ada955e3b19}, !- Space Name
  Surface,                                !- Outside Boundary Condition
  {4c7aa5d1-c39a-46ff-a154-bd97db7da786}, !- Outside Boundary Condition Object
  NoSun,                                  !- Sun Exposure
  NoWind,                                 !- Wind Exposure
  ,                                       !- View Factor to Ground
  ,                                       !- Number of Vertices
  4.572, 4.572, 8.5344,                   !- X,Y,Z Vertex 1 {m}
  4.572, 4.572, 0,                        !- X,Y,Z Vertex 2 {m}
  -7.105427357601e-15, 4.572, 0,          !- X,Y,Z Vertex 3 {m}
  -7.105427357601e-15, 4.572, 8.5344;     !- X,Y,Z Vertex 4 {m}

OS:Surface,
  {d591db3a-1c5d-43dd-8e7f-12549fbd5353}, !- Handle
  Surface 4,                              !- Name
  Wall,                                   !- Surface Type
  ,                                       !- Construction Name
  {426573eb-ff8a-4b29-ad6d-4ada955e3b19}, !- Space Name
  Surface,                                !- Outside Boundary Condition
  {92bad38e-9c71-4cfb-a05d-d5853b20bdd1}, !- Outside Boundary Condition Object
  NoSun,                                  !- Sun Exposure
  NoWind,                                 !- Wind Exposure
  ,                                       !- View Factor to Ground
  ,                                       !- Number of Vertices
  4.572, -3.5527136788005e-15, 8.5344,    !- X,Y,Z Vertex 1 {m}
  4.572, -3.5527136788005e-15, 0,         !- X,Y,Z Vertex 2 {m}
  4.572, 4.572, 0,                        !- X,Y,Z Vertex 3 {m}
  4.572, 4.572, 8.5344;                   !- X,Y,Z Vertex 4 {m}

OS:Surface,
  {69c340f7-ac1c-4fca-88e2-c17782678a76}, !- Handle
  Surface 5,                              !- Name
  Wall,                                   !- Surface Type
  ,                                       !- Construction Name
  {426573eb-ff8a-4b29-ad6d-4ada955e3b19}, !- Space Name
  Outdoors,                               !- Outside Boundary Condition
  ,                                       !- Outside Boundary Condition Object
  SunExposed,                             !- Sun Exposure
  WindExposed,                            !- Wind Exposure
  ,                                       !- View Factor to Ground
  ,                                       !- Number of Vertices
  -7.105427357601e-15, -3.5527136788005e-15, 8.5344, !- X,Y,Z Vertex 1 {m}
  -7.105427357601e-15, -3.5527136788005e-15, 0, !- X,Y,Z Vertex 2 {m}
  4.572, -3.5527136788005e-15, 0,         !- X,Y,Z Vertex 3 {m}
  4.572, -3.5527136788005e-15, 8.5344;    !- X,Y,Z Vertex 4 {m}

OS:Surface,
  {2232f7a5-edfb-4bff-aec3-f9d9385c4df8}, !- Handle
  Surface 6,                              !- Name
  RoofCeiling,                            !- Surface Type
  ,                                       !- Construction Name
  {426573eb-ff8a-4b29-ad6d-4ada955e3b19}, !- Space Name
  Outdoors,                               !- Outside Boundary Condition
  ,                                       !- Outside Boundary Condition Object
  SunExposed,                             !- Sun Exposure
  WindExposed,                            !- Wind Exposure
  ,                                       !- View Factor to Ground
  ,                                       !- Number of Vertices
  4.572, -3.5527136788005e-15, 8.5344,    !- X,Y,Z Vertex 1 {m}
  4.572, 4.572, 8.5344,                   !- X,Y,Z Vertex 2 {m}
  -7.105427357601e-15, 4.572, 8.5344,     !- X,Y,Z Vertex 3 {m}
  -7.105427357601e-15, -3.5527136788005e-15, 8.5344; !- X,Y,Z Vertex 4 {m}

OS:ThermalZone,
  {9c5b2699-392c-470b-ba31-b4a20ed879fd}, !- Handle
  Zone Warehouse Bulk A end_a - Story Ground, !- Name
  1,                                      !- Multiplier
  ,                                       !- Ceiling Height {m}
  ,                                       !- Volume {m3}
  ,                                       !- Floor Area {m2}
  ,                                       !- Zone Inside Convection Algorithm
  ,                                       !- Zone Outside Convection Algorithm
  ,                                       !- Zone Conditioning Equipment List Name
  {3ddb4fcc-3e1b-42b0-aa5b-3f2a6e635c32}, !- Zone Air Inlet Port List
  {d99925d5-b6ef-43c6-aff3-4ec4ef8c48ab}, !- Zone Air Exhaust Port List
  {c3759523-ad6c-433f-9e9f-fc317da8392c}, !- Zone Air Node Name
  {80d47502-a5ad-47c0-8c6a-792d92b1bb81}, !- Zone Return Air Port List
  ,                                       !- Primary Daylighting Control Name
  ,                                       !- Fraction of Zone Controlled by Primary Daylighting Control
  ,                                       !- Secondary Daylighting Control Name
  ,                                       !- Fraction of Zone Controlled by Secondary Daylighting Control
  ,                                       !- Illuminance Map Name
  ,                                       !- Group Rendering Name
  {b756981a-f39c-4083-8b15-f153d1083f9e}, !- Thermostat Name
  No;                                     !- Use Ideal Air Loads

OS:Node,
  {c2c7f1a2-7b06-4ec8-b092-10d455539100}, !- Handle
  Zone Warehouse Bulk A end_a - Story Ground Zone Air Node, !- Name
  {c3759523-ad6c-433f-9e9f-fc317da8392c}, !- Inlet Port
  ;                                       !- Outlet Port

OS:Connection,
  {c3759523-ad6c-433f-9e9f-fc317da8392c}, !- Handle
  {9c5b2699-392c-470b-ba31-b4a20ed879fd}, !- Source Object
  11,                                     !- Outlet Port
  {c2c7f1a2-7b06-4ec8-b092-10d455539100}, !- Target Object
  2;                                      !- Inlet Port

OS:PortList,
  {3ddb4fcc-3e1b-42b0-aa5b-3f2a6e635c32}, !- Handle
  {9c5b2699-392c-470b-ba31-b4a20ed879fd}; !- HVAC Component

OS:PortList,
  {d99925d5-b6ef-43c6-aff3-4ec4ef8c48ab}, !- Handle
  {9c5b2699-392c-470b-ba31-b4a20ed879fd}; !- HVAC Component

OS:PortList,
  {80d47502-a5ad-47c0-8c6a-792d92b1bb81}, !- Handle
  {9c5b2699-392c-470b-ba31-b4a20ed879fd}; !- HVAC Component

OS:Sizing:Zone,
  {da711450-939c-4b4e-af8b-b59a029049fd}, !- Handle
  {9c5b2699-392c-470b-ba31-b4a20ed879fd}, !- Zone or ZoneList Name
  SupplyAirTemperature,                   !- Zone Cooling Design Supply Air Temperature Input Method
  14,                                     !- Zone Cooling Design Supply Air Temperature {C}
  11.11,                                  !- Zone Cooling Design Supply Air Temperature Difference {deltaC}
  SupplyAirTemperature,                   !- Zone Heating Design Supply Air Temperature Input Method
  40,                                     !- Zone Heating Design Supply Air Temperature {C}
  11.11,                                  !- Zone Heating Design Supply Air Temperature Difference {deltaC}
  0.0085,                                 !- Zone Cooling Design Supply Air Humidity Ratio {kg-H2O/kg-air}
  0.008,                                  !- Zone Heating Design Supply Air Humidity Ratio {kg-H2O/kg-air}
  ,                                       !- Zone Heating Sizing Factor
  ,                                       !- Zone Cooling Sizing Factor
  DesignDay,                              !- Cooling Design Air Flow Method
  ,                                       !- Cooling Design Air Flow Rate {m3/s}
  ,                                       !- Cooling Minimum Air Flow per Zone Floor Area {m3/s-m2}
  ,                                       !- Cooling Minimum Air Flow {m3/s}
  ,                                       !- Cooling Minimum Air Flow Fraction
  DesignDay,                              !- Heating Design Air Flow Method
  ,                                       !- Heating Design Air Flow Rate {m3/s}
  ,                                       !- Heating Maximum Air Flow per Zone Floor Area {m3/s-m2}
  ,                                       !- Heating Maximum Air Flow {m3/s}
  ,                                       !- Heating Maximum Air Flow Fraction
  No,                                     !- Account for Dedicated Outdoor Air System
  NeutralSupplyAir,                       !- Dedicated Outdoor Air System Control Strategy
  autosize,                               !- Dedicated Outdoor Air Low Setpoint Temperature for Design {C}
  autosize,                               !- Dedicated Outdoor Air High Setpoint Temperature for Design {C}
  Sensible Load Only No Latent Load,      !- Zone Load Sizing Method
  HumidityRatioDifference,                !- Zone Latent Cooling Design Supply Air Humidity Ratio Input Method
  ,                                       !- Zone Dehumidification Design Supply Air Humidity Ratio {kgWater/kgDryAir}
  0.005,                                  !- Zone Cooling Design Supply Air Humidity Ratio Difference {kgWater/kgDryAir}
  HumidityRatioDifference,                !- Zone Latent Heating Design Supply Air Humidity Ratio Input Method
  ,                                       !- Zone Humidification Design Supply Air Humidity Ratio {kgWater/kgDryAir}
  0.005;                                  !- Zone Humidification Design Supply Air Humidity Ratio Difference {kgWater/kgDryAir}

OS:ZoneHVAC:EquipmentList,
  {d527d7fb-a73d-453b-afdd-2e8d8f22bae6}, !- Handle
  Zone Warehouse Bulk A end_a - Story Ground Zone HVAC Equipment List, !- Name
  {9c5b2699-392c-470b-ba31-b4a20ed879fd}, !- Thermal Zone
  ,                                       !- Load Distribution Scheme
  {fea45062-1d95-40e8-be05-f40001e2720c}, !- Zone Equipment 1
  1,                                      !- Zone Equipment Cooling Sequence 1
  1,                                      !- Zone Equipment Heating or No-Load Sequence 1
  ,                                       !- Zone Equipment Sequential Cooling Fraction Schedule Name 1
  ;                                       !- Zone Equipment Sequential Heating Fraction Schedule Name 1

OS:Space,
  {5e456acc-3b9e-487b-aff4-e39f664b9952}, !- Handle
  Warehouse Bulk B end_a - Story Ground,  !- Name
  {f0432a62-bd4b-4b50-b753-3d72771dc656}, !- Space Type Name
  ,                                       !- Default Construction Set Name
  ,                                       !- Default Schedule Set Name
  -0,                                     !- Direction of Relative North {deg}
  -57.5600092425288,                      !- X Origin {m}
  -24.2080046212644,                      !- Y Origin {m}
  0,                                      !- Z Origin {m}
  {22b84c4e-550c-4dbe-959e-ac31132e3dae}, !- Building Story Name
  {5f3ff517-3f86-409d-837f-b3651955ac68}; !- Thermal Zone Name

OS:Surface,
  {d028359c-710f-4a4a-a3aa-7785b3073351}, !- Handle
  Surface 7,                              !- Name
  Floor,                                  !- Surface Type
  {9bd2e365-a365-4706-80eb-6b8e4b8a6c25}, !- Construction Name
  {5e456acc-3b9e-487b-aff4-e39f664b9952}, !- Space Name
  GroundFCfactorMethod,                   !- Outside Boundary Condition
  ,                                       !- Outside Boundary Condition Object
  NoSun,                                  !- Sun Exposure
  NoWind,                                 !- Wind Exposure
  ,                                       !- View Factor to Ground
  ,                                       !- Number of Vertices
  -7.105427357601e-15, -3.5527136788005e-15, 0, !- X,Y,Z Vertex 1 {m}
  -7.105427357601e-15, 48.4160092425288, 0, !- X,Y,Z Vertex 2 {m}
  4.572, 48.4160092425288, 0,             !- X,Y,Z Vertex 3 {m}
  4.572, -3.5527136788005e-15, 0;         !- X,Y,Z Vertex 4 {m}

OS:Surface,
  {3f79fad8-5d6e-45c4-958b-dac3a5e8ece7}, !- Handle
  Surface 8,                              !- Name
  Wall,                                   !- Surface Type
  ,                                       !- Construction Name
  {5e456acc-3b9e-487b-aff4-e39f664b9952}, !- Space Name
  Outdoors,                               !- Outside Boundary Condition
  ,                                       !- Outside Boundary Condition Object
  SunExposed,                             !- Sun Exposure
  WindExposed,                            !- Wind Exposure
  ,                                       !- View Factor to Ground
  ,                                       !- Number of Vertices
  -7.105427357601e-15, 48.4160092425288, 8.5344, !- X,Y,Z Vertex 1 {m}
  -7.105427357601e-15, 48.4160092425288, 0, !- X,Y,Z Vertex 2 {m}
  -7.105427357601e-15, -3.5527136788005e-15, 0, !- X,Y,Z Vertex 3 {m}
  -7.105427357601e-15, -3.5527136788005e-15, 8.5344; !- X,Y,Z Vertex 4 {m}

OS:Surface,
  {c2f7c392-6e7f-4c3a-bc65-39f27c14ec06}, !- Handle
  Surface 9,                              !- Name
  Wall,                                   !- Surface Type
  ,                                       !- Construction Name
  {5e456acc-3b9e-487b-aff4-e39f664b9952}, !- Space Name
  Surface,                                !- Outside Boundary Condition
  {4fc71e64-638b-40c7-bb5d-018290777040}, !- Outside Boundary Condition Object
  NoSun,                                  !- Sun Exposure
  NoWind,                                 !- Wind Exposure
  ,                                       !- View Factor to Ground
  ,                                       !- Number of Vertices
  4.572, 48.4160092425288, 8.5344,        !- X,Y,Z Vertex 1 {m}
  4.572, 48.4160092425288, 0,             !- X,Y,Z Vertex 2 {m}
  -7.105427357601e-15, 48.4160092425288, 0, !- X,Y,Z Vertex 3 {m}
  -7.105427357601e-15, 48.4160092425288, 8.5344; !- X,Y,Z Vertex 4 {m}

OS:Surface,
  {6706f598-e121-418c-9683-7d8be3e15555}, !- Handle
  Surface 10,                             !- Name
  Wall,                                   !- Surface Type
  ,                                       !- Construction Name
  {5e456acc-3b9e-487b-aff4-e39f664b9952}, !- Space Name
  Surface,                                !- Outside Boundary Condition
  {4f16d6ca-b800-419b-bfb7-1a486d3208bd}, !- Outside Boundary Condition Object
  NoSun,                                  !- Sun Exposure
  NoWind,                                 !- Wind Exposure
  ,                                       !- View Factor to Ground
  ,                                       !- Number of Vertices
  4.572, -3.5527136788005e-15, 8.5344,    !- X,Y,Z Vertex 1 {m}
  4.572, -3.5527136788005e-15, 0,         !- X,Y,Z Vertex 2 {m}
  4.572, 48.4160092425288, 0,             !- X,Y,Z Vertex 3 {m}
  4.572, 48.4160092425288, 8.5344;        !- X,Y,Z Vertex 4 {m}

OS:Surface,
  {4c7aa5d1-c39a-46ff-a154-bd97db7da786}, !- Handle