
OS:Version,
  {535533d6-2f11-4aad-8f6c-0ec2e34e1679}, !- Handle
  3.7.0;                                  !- Version Identifier

OS:RunPeriodControl:DaylightSavingTime,
  {7c53a019-0fb0-4978-81ce-149c7d56f4d9}, !- Handle
  2nd Sunday in March,                    !- Start Date
  1st Sunday in November;                 !- End Date

OS:YearDescription,
  {0fb9349d-e409-46a7-b1da-c0f3b4e1edc8}, !- Handle
  2015,                                   !- Calendar Year
  ,                                       !- Day of Week for Start Day
  ;                                       !- Is Leap Year

OS:Timestep,
  {8085d964-e721-437e-b803-fb99d721d0e7}, !- Handle
  4;                                      !- Number of Timesteps per Hour

OS:RunPeriod,
  {5ac7b6f6-3993-451c-bec8-9ba2bb993c6c}, !- Handle
  Run Period 1,                           !- Name
  1,                                      !- Begin Month
  1,                                      !- Begin Day of Month
  12,                                     !- End Month
  30,                                     !- End Day of Month
  ,                                       !- Use Weather File Holidays and Special Days
  ,                                       !- Use Weather File Daylight Saving Period
  ,                                       !- Apply Weekend Holiday Rule
  ,                                       !- Use Weather File Rain Indicators
  ,                                       !- Use Weather File Snow Indicators
  ;                                       !- Number of Times Runperiod to be Repeated

OS:Site,
  {53c22837-e956-450e-ba67-3c73f36a5c1f}, !- Handle
  CA_LOS-ANGELES-DOWNTOWN-_-_USA,         !- Name
  34.03,                                  !- Latitude {deg}
  -118.3,                                 !- Longitude {deg}
  -8,                                     !- Time Zone {hr}
  56,                                     !- Elevation {m}
  City;                                   !- Terrain

OS:Site:WaterMainsTemperature,
  {733da35c-69e3-4a80-b90e-76a2b3594dd4}, !- Handle
  Correlation,                            !- Calculation Method
  ,                                       !- Temperature Schedule Name
  17.9083333333333,                       !- Annual Average Outdoor Air Temperature {C}
  10.6;                                   !- Maximum Difference In Monthly Average Outdoor Air Temperatures {deltaC}

OS:SizingPeriod:DesignDay,
  {f7c1c9c6-4bb3-4368-aa96-d50123fdd6a6}, !- Handle
  CA_LOS-ANGELES-DOWNTOWN- Ann Clg .4% Condns DB=>MWB 1, !- Name
  32.8,                                   !- Maximum Dry-Bulb Temperature {C}
  9.7,                                    !- Daily Dry-Bulb Temperature Range {deltaC}
  100654,                                 !- Barometric Pressure {Pa}
  1.5,                                    !- Wind Speed {m/s}
  0,                                      !- Wind Direction {deg}
  0,                                      !- Sky Clearness
  No,                                     !- Rain Indicator
  No,                                     !- Snow Indicator
  21,                                     !- Day of Month
  8,                                      !- Month
  SummerDesignDay,                        !- Day Type
  No,                                     !- Daylight Saving Time Indicator
  Wetbulb,                                !- Humidity Condition Type
  ,                                       !- Humidity Condition Day Schedule Name
  18.9,                                   !- Wetbulb or DewPoint at Maximum Dry-Bulb {C}
  ,                                       !- Humidity Ratio at Maximum Dry-Bulb {kgWater/kgDryAir}
  ,                                       !- Enthalpy at Maximum Dry-Bulb {J/kg}
  DefaultMultipliers,                     !- Dry-Bulb Temperature Range Modifier Type
  ,                                       !- Dry-Bulb Temperature Range Modifier Day Schedule Name
  ASHRAETau,                              !- Solar Model Indicator
  ,                                       !- Beam Solar Day Schedule Name
  ,                                       !- Diffuse Solar Day Schedule Name
  0.361,                                  !- ASHRAE Clear Sky Optical Depth for Beam Irradiance {dimensionless}
  2.436;                                  !- ASHRAE Clear Sky Optical Depth for Diffuse Irradiance {dimensionless}

OS:SizingPeriod:DesignDay,
  {0dcc5ae3-7e4c-4127-8ca7-e06b3b98fe16}, !- Handle
  CA_LOS-ANGELES-DOWNTOWN- Ann Clg .4% Condns WB=>MDB 1, !- Name
  29.2,                                   !- Maximum Dry-Bulb Temperature {C}
  9.7,                                    !- Daily Dry-Bulb Temperature Range {deltaC}
  100654,                                 !- Barometric Pressure {Pa}
  1.5,                                    !- Wind Speed {m/s}
  0,                                      !- Wind Direction {deg}
  0,                                      !- Sky Clearness
  No,                                     !- Rain Indicator
  No,                                     !- Snow Indicator
  21,                                     !- Day of Month
  8,                                      !- Month
  SummerDesignDay,                        !- Day Type
  No,                                     !- Daylight Saving Time Indicator
  Wetbulb,                                !- Humidity Condition Type
  ,                                       !- Humidity Condition Day Schedule Name
  22,                                     !- Wetbulb or DewPoint at Maximum Dry-Bulb {C}
  ,                                       !- Humidity Ratio at Maximum Dry-Bulb {kgWater/kgDryAir}
  ,                                       !- Enthalpy at Maximum Dry-Bulb {J/kg}
  DefaultMultipliers,                     !- Dry-Bulb Temperature Range Modifier Type
  ,                                       !- Dry-Bulb Temperature Range Modifier Day Schedule Name
  ASHRAETau,                              !- Solar Model Indicator
  ,                                       !- Beam Solar Day Schedule Name
  ,                                       !- Diffuse Solar Day Schedule Name
  0.361,                                  !- ASHRAE Clear Sky Optical Depth for Beam Irradiance {dimensionless}
  2.436;                                  !- ASHRAE Clear Sky Optical Depth for Diffuse Irradiance {dimensionless}

OS:SizingPeriod:DesignDay,
  {98309a1f-1f8f-46fd-b5b0-fbeb949f3c09}, !- Handle
  CA_LOS-ANGELES-DOWNTOWN- Ann Htg 99.6% Condns DB 1, !- Name
  6.2,                                    !- Maximum Dry-Bulb Temperature {C}
  0,                                      !- Daily Dry-Bulb Temperature Range {deltaC}
  100654,                                 !- Barometric Pressure {Pa}
  0.2,                                    !- Wind Speed {m/s}
  0,                                      !- Wind Direction {deg}
  0,                                      !- Sky Clearness
  No,                                     !- Rain Indicator
  No,                                     !- Snow Indicator
  21,                                     !- Day of Month
  12,                                     !- Month
  WinterDesignDay,                        !- Day Type
  No,                                     !- Daylight Saving Time Indicator
  Wetbulb,                                !- Humidity Condition Type
  ,                                       !- Humidity Condition Day Schedule Name
  6.2,                                    !- Wetbulb or DewPoint at Maximum Dry-Bulb {C}
  ,                                       !- Humidity Ratio at Maximum Dry-Bulb {kgWater/kgDryAir}
  ,                                       !- Enthalpy at Maximum Dry-Bulb {J/kg}
  DefaultMultipliers,                     !- Dry-Bulb Temperature Range Modifier Type
  ,                                       !- Dry-Bulb Temperature Range Modifier Day Schedule Name
  ASHRAEClearSky;                         !- Solar Model Indicator

OS:ClimateZones,
  {5b2e3c20-0cd2-4509-b1ef-62d6ecbae828}, !- Handle
  CEC,                                    !- Climate Zone Institution Name 1
  California Climate Zone Descriptions,   !- Climate Zone Document Name 1
  1995,                                   !- Climate Zone Document Year 1
  ,                                       !- Climate Zone Value 1
  ASHRAE,                                 !- Climate Zone Institution Name 2
  ANSI/ASHRAE Standard 169,               !- Climate Zone Document Name 2
  2006,                                   !- Climate Zone Document Year 2
  3B;                                     !- Climate Zone Value 2

OS:SpaceType,
  {b04d7606-f0ec-4a84-9862-68ebbb83a7a8}, !- Handle
  RtS RetailSales - DEER Pre-1975,        !- Name
  ,                                       !- Default Construction Set Name
  {1a5eae50-f6e7-4ae8-ab06-2b8954aa1e77}, !- Default Schedule Set Name
  ,                                       !- Group Rendering Name
  {dd8223a6-cfd5-42af-99c5-d5e46de01d2f}, !- Design Specification Outdoor Air Object Name
  ,                                       !- Standards Template
  RtS,                                    !- Standards Building Type
  RetailSales;                            !- Standards Space Type

OS:SpaceType,
  {6ca53bdc-74a1-432c-9504-a05c4cdb70f1}, !- Handle
  RtS StockRoom - DEER Pre-1975,          !- Name
  ,                                       !- Default Construction Set Name
  {c4ad8440-64da-4281-a386-d1daae623bec}, !- Default Schedule Set Name
  ,                                       !- Group Rendering Name
  {b9e173a5-4987-4dd1-9fd2-015e6c380a7a}, !- Design Specification Outdoor Air Object Name
  ,                                       !- Standards Template
  RtS,                                    !- Standards Building Type
  StockRoom;                              !- Standards Space Type

OS:Building,
  {bee485cf-bad3-42ef-a60f-c12076121f32}, !- Handle
  DEER Pre-1975|RtS,                      !- Name
  ,                                       !- Building Sector Type
  0,                                      !- North Axis {deg}
  ,                                       !- Nominal Floor to Floor Height {m}
  ,                                       !- Space Type Name
  {877bcc05-81bb-4683-a77c-bf58d5159787}, !- Default Construction Set Name
  {d2c09482-beb3-4cee-ac07-5e42a3fe0bd9}, !- Default Schedule Set Name
  ,                                       !- Standards Number of Stories
  ,                                       !- Standards Number of Above Ground Stories
  ,                                       !- Standards Template
  RtS;                                    !- Standards Building Type

OS:BuildingStory,
  {4424c946-44ac-4ee5-9b68-fbf6dc87bc9c}, !- Handle
  Story Ground,                           !- Name
  0,                                      !- Nominal Z Coordinate {m}
  3.6576,                                 !- Nominal Floor to Floor Height {m}
  ,                                       !- Default Construction Set Name
  ,                                       !- Default Schedule Set Name
  ;                                       !- Group Rendering Name

OS:Space,
  {bc2724f0-6cf6-4bbe-9ccd-a88155bd592a}, !- Handle
  RtS RetailSales A end_a - Story Ground, !- Name
  {b04d7606-f0ec-4a84-9862-68ebbb83a7a8}, !- Space Type Name
  ,                                       !- Default Construction Set Name
  ,                                       !- Default Schedule Set Name
  -0,                                     !- Direction of Relative North {deg}
  -34.9192267955635,                      !- X Origin {m}
  -11.6397422651878,                      !- Y Origin {m}
  0,                                      !- Z Origin {m}
  {4424c946-44ac-4ee5-9b68-fbf6dc87bc9c}, !- Building Story Name
  {aa26dd1d-debf-47e1-a48e-8281b14870ba}; !- Thermal Zone Name

OS:Surface,
  {8493cf70-9fc0-42e7-bb92-078b8066ee1e}, !- Handle
  Surface 1,                              !- Name
  Floor,                                  !- Surface Type
  {a9a110cf-a0e0-4555-b6b8-dbdbc9afa6c5}, !- Construction Name
  {bc2724f0-6cf6-4bbe-9ccd-a88155bd592a}, !- Space Name
  Ground,                                 !- Outside Boundary Condition
  ,                                       !- Outside Boundary Condition Object
  NoSun,                                  !- Sun Exposure
  NoWind,                                 !- Wind Exposure
  ,                                       !- View Factor to Ground
  ,                                       !- Number of Vertices
  0, 3.19744231092045e-14, 0,             !- X,Y,Z Vertex 1 {m}
  0, 4.572, 0,                            !- X,Y,Z Vertex 2 {m}
  4.572, 4.572, 0,                        !- X,Y,Z Vertex 3 {m}
  4.572, 3.19744231092045e-14, 0;         !- X,Y,Z Vertex 4 {m}

OS:Surface,
  {17db27fb-a26e-4f41-ac60-6d25b3663b12}, !- Handle
  Surface 2,                              !- Name
  Wall,                                   !- Surface Type
  {41ee0186-c1c6-4ce7-b93f-0ceefc9ff95c}, !- Construction Name
  {bc2724f0-6cf6-4bbe-9ccd-a88155bd592a}, !- Space Name
  Outdoors,                               !- Outside Boundary Condition
  ,                                       !- Outside Boundary Condition Object
  SunExposed,                             !- Sun Exposure
  WindExposed,                            !- Wind Exposure
  ,                                       !- View Factor to Ground
  ,                                       !- Number of Vertices
  0, 4.572, 3.6576,                       !- X,Y,Z Vertex 1 {m}
  0, 4.572, 0,                            !- X,Y,Z Vertex 2 {m}
  0, 3.19744231092045e-14, 0,             !- X,Y,Z Vertex 3 {m}
  0, 3.19744231092045e-14, 3.6576;        !- X,Y,Z Vertex 4 {m}

OS:Surface,
  {94c223eb-e06f-4de6-a4c4-f1b71cad0518}, !- Handle
  Surface 3,                              !- Name
  Wall,                                   !- Surface Type
  ,                                       !- Construction Name
  {bc2724f0-6cf6-4bbe-9ccd-a88155bd592a}, !- Space Name
  Surface,                                !- Outside Boundary Condition
  {38343acc-4778-4faa-8282-278bf21c7793}, !- Outside Boundary Condition Object
  NoSun,                                  !- Sun Exposure
  NoWind,                                 !- Wind Exposure
  ,                                       !- View Factor to Ground
  ,                                       !- Number of Vertices
  4.572, 4.572, 3.6576,                   !- X,Y,Z Vertex 1 {m}
  4.572, 4.572, 0,                        !- X,Y,Z Vertex 2 {m}
  0, 4.572, 0,                            !- X,Y,Z Vertex 3 {m}
  0, 4.572, 3.6576;                       !- X,Y,Z Vertex 4 {m}

OS:Surface,
  {e199d03f-dcd5-4c4c-aee7-677cb5b27c7b}, !- Handle
  Surface 4,                              !- Name
  Wall,                                   !- Surface Type
  ,                                       !- Construction Name
  {bc2724f0-6cf6-4bbe-9ccd-a88155bd592a}, !- Space Name
  Surface,                                !- Outside Boundary Condition
  {bfab351f-a3ec-4709-9a96-8edf11495366}, !- Outside Boundary Condition Object
  NoSun,                                  !- Sun Exposure
  NoWind,                                 !- Wind Exposure
  ,                                       !- View Factor to Ground
  ,                                       !- Number of Vertices
  4.572, 3.19744231092045e-14, 3.6576,    !- X,Y,Z Vertex 1 {m}
  4.572, 3.19744231092045e-14, 0,         !- X,Y,Z Vertex 2 {m}
  4.572, 4.572, 0,                        !- X,Y,Z Vertex 3 {m}
  4.572, 4.572, 3.6576;                   !- X,Y,Z Vertex 4 {m}

OS:Surface,
  {7b173fac-9d79-47fe-ad89-1649d6714b17}, !- Handle
  Surface 5,                              !- Name
  Wall,                                   !- Surface Type
  {41ee0186-c1c6-4ce7-b93f-0ceefc9ff95c}, !- Construction Name
  {bc2724f0-6cf6-4bbe-9ccd-a88155bd592a}, !- Space Name
  Outdoors,                               !- Outside Boundary Condition
  ,                                       !- Outside Boundary Condition Object
  SunExposed,                             !- Sun Exposure
  WindExposed,                            !- Wind Exposure
  ,                                       !- View Factor to Ground
  ,                                       !- Number of Vertices
  0, 3.19744231092045e-14, 3.6576,        !- X,Y,Z Vertex 1 {m}
  0, 3.19744231092045e-14, 0,             !- X,Y,Z Vertex 2 {m}
  4.572, 3.19744231092045e-14, 0,         !- X,Y,Z Vertex 3 {m}
  4.572, 3.19744231092045e-14, 3.6576;    !- X,Y,Z Vertex 4 {m}

OS:Surface,
  {adbb6330-84f3-47e6-949a-e507f5ed2643}, !- Handle
  Surface 6,                              !- Name
  RoofCeiling,                            !- Surface Type
  {30363f91-8e2c-4832-8a39-c267af7145f7}, !- Construction Name
  {bc2724f0-6cf6-4bbe-9ccd-a88155bd592a}, !- Space Name
  Outdoors,                               !- Outside Boundary Condition
  ,                                       !- Outside Boundary Condition Object
  SunExposed,                             !- Sun Exposure
  WindExposed,                            !- Wind Exposure
  ,                                       !- View Factor to Ground
  ,                                       !- Number of Vertices
  4.572, 3.19744231092045e-14, 3.6576,    !- X,Y,Z Vertex 1 {m}
  4.572, 4.572, 3.6576,                   !- X,Y,Z Vertex 2 {m}
  0, 4.572, 3.6576,                       !- X,Y,Z Vertex 3 {m}
  0, 3.19744231092045e-14, 3.6576;        !- X,Y,Z Vertex 4 {m}

OS:ThermalZone,
  {aa26dd1d-debf-47e1-a48e-8281b14870ba}, !- Handle
  Zone RtS RetailSales A end_a - Story Ground, !- Name
  1,                                      !- Multiplier
  ,                                       !- Ceiling Height {m}
  ,                                       !- Volume {m3}
  ,                                       !- Floor Area {m2}
  ,                                       !- Zone Inside Convection Algorithm
  ,                                       !- Zone Outside Convection Algorithm
  ,                                       !- Zone Conditioning Equipment List Name
  {02dfd0e0-ebab-4617-b160-93567edfe9a7}, !- Zone Air Inlet Port List
  {630c5296-ff14-4890-aa6d-5cfb2bf9a91a}, !- Zone Air Exhaust Port List
  {eccc191d-90a8-4b17-a25b-c2e6ce31532c}, !- Zone Air Node Name
  {dc0f55b7-fe5d-4169-a46a-10f74622cfc0}, !- Zone Return Air Port List
  ,                                       !- Primary Daylighting Control Name
  ,                                       !- Fraction of Zone Controlled by Primary Daylighting Control
  ,                                       !- Secondary Daylighting Control Name
  ,                                       !- Fraction of Zone Controlled by Secondary Daylighting Control
  ,                                       !- Illuminance Map Name
  ,                                       !- Group Rendering Name
  {5d8b27a9-0b74-4965-8ae9-4e5de3707cc8}, !- Thermostat Name
  No;                                     !- Use Ideal Air Loads

OS:Node,
  {70fd8dc5-ac53-4340-aaae-800b997bc043}, !- Handle
  Zone RtS RetailSales A end_a - Story Ground Zone Air Node, !- Name
  {eccc191d-90a8-4b17-a25b-c2e6ce31532c}, !- Inlet Port
  ;                                       !- Outlet Port

OS:Connection,
  {eccc191d-90a8-4b17-a25b-c2e6ce31532c}, !- Handle
  {aa26dd1d-debf-47e1-a48e-8281b14870ba}, !- Source Object
  11,                                     !- Outlet Port
  {70fd8dc5-ac53-4340-aaae-800b997bc043}, !- Target Object
  2;                                      !- Inlet Port

OS:PortList,
  {02dfd0e0-ebab-4617-b160-93567edfe9a7}, !- Handle
  {aa26dd1d-debf-47e1-a48e-8281b14870ba}, !- HVAC Component
  {d97475c6-05a3-4da6-8a5f-b032e4964e31}; !- Port 1

OS:PortList,
  {630c5296-ff14-4890-aa6d-5cfb2bf9a91a}, !- Handle
  {aa26dd1d-debf-47e1-a48e-8281b14870ba}; !- HVAC Component

OS:PortList,
  {dc0f55b7-fe5d-4169-a46a-10f74622cfc0}, !- Handle
  {aa26dd1d-debf-47e1-a48e-8281b14870ba}, !- HVAC Component
  {431e3c05-ce5f-4b06-95ae-68e710b17ebd}; !- Port 1

OS:Sizing:Zone,
  {8153ab6e-5bb4-47d6-8961-a0f71974b3d7}, !- Handle
  {aa26dd1d-debf-47e1-a48e-8281b14870ba}, !- Zone or ZoneList Name
  SupplyAirTemperature,                   !- Zone Cooling Design Supply Air Temperature Input Method
  12.7777777777778,                       !- Zone Cooling Design Supply Air Temperature {C}
  11.11,                                  !- Zone Cooling Design Supply Air Temperature Difference {deltaC}
  SupplyAirTemperature,                   !- Zone Heating Design Supply Air Temperature Input Method
  50.0000000000001,                       !- Zone Heating Design Supply Air Temperature {C}
  11.11,                                  !- Zone Heating Design Supply Air Temperature Difference {deltaC}
  0.0085,                                 !- Zone Cooling Design Supply Air Humidity Ratio {kg-H2O/kg-air}
  0.008,                                  !- Zone Heating Design Supply Air Humidity Ratio {kg-H2O/kg-air}
  ,                                       !- Zone Heating Sizing Factor
  ,                                       !- Zone Cooling Sizing Factor
  DesignDay,                              !- Cooling Design Air Flow Method
  ,                                       !- Cooling Design Air Flow Rate {m3/s}
  ,                                       !- Cooling Minimum Air Flow per Zone Floor Area {m3/s-m2}
  ,                                       !- Cooling Minimum Air Flow {m3/s}
  ,                                       !- Cooling Minimum Air Flow Fraction
  DesignDay,                              !- Heating Design Air Flow Method
  ,                                       !- Heating Design Air Flow Rate {m3/s}
  ,                                       !- Heating Maximum Air Flow per Zone Floor Area {m3/s-m2}
  ,                                       !- Heating Maximum Air Flow {m3/s}
  ,                                       !- Heating Maximum Air Flow Fraction
  No,                                     !- Account for Dedicated Outdoor Air System
  NeutralSupplyAir,                       !- Dedicated Outdoor Air System Control Strategy
  autosize,                               !- Dedicated Outdoor Air Low Setpoint Temperature for Design {C}
  autosize,                               !- Dedicated Outdoor Air High Setpoint Temperature for Design {C}
  Sensible Load Only No Latent Load,      !- Zone Load Sizing Method
  HumidityRatioDifference,                !- Zone Latent Cooling Design Supply Air Humidity Ratio Input Method
  ,                                       !- Zone Dehumidification Design Supply Air Humidity Ratio {kgWater/kgDryAir}
  0.005,                                  !- Zone Cooling Design Supply Air Humidity Ratio Difference {kgWater/kgDryAir}
  HumidityRatioDifference,                !- Zone Latent Heating Design Supply Air Humidity Ratio Input Method
  ,                                       !- Zone Humidification Design Supply Air Humidity Ratio {kgWater/kgDryAir}
  0.005;                                  !- Zone Humidification Design Supply Air Humidity Ratio Difference {kgWater/kgDryAir}

OS:ZoneHVAC:EquipmentList,
  {6e6d9342-2588-4fd5-a887-b8e30bfdcbdd}, !- Handle
  Zone RtS RetailSales A end_a - Story Ground Zone HVAC Equipment List, !- Name
  {aa26dd1d-debf-47e1-a48e-8281b14870ba}, !- Thermal Zone
  ,                                       !- Load Distribution Scheme
  {00867cec-9347-4a77-bd44-02b5be9d4a77}, !- Zone Equipment 1
  1,                                      !- Zone Equipment Cooling Sequence 1
  1,                                      !- Zone Equipment Heating or No-Load Sequence 1
  ,                                       !- Zone Equipment Sequential Cooling Fraction Schedule Name 1
  ;                                       !- Zone Equipment Sequential Heating Fraction Schedule Name 1

OS:Space,
  {8d304a28-f8d4-46d5-af91-f2ca9348e570}, !- Handle
  RtS RetailSales B end_a - Story Ground, !- Name
  {b04d7606-f0ec-4a84-9862-68ebbb83a7a8}, !- Space Type Name
  ,                                       !- Default Construction Set Name
  ,                                       !- Default Schedule Set Name
  -0,                                     !- Direction of Relative North {deg}
  -34.9192267955635,                      !- X Origin {m}
  -7.06774226518783,                      !- Y Origin {m}
  0,                                      !- Z Origin {m}
  {4424c946-44ac-4ee5-9b68-fbf6dc87bc9c}, !- Building Story Name
  {dd8df85f-c31e-46b5-b33d-1d1ac9f0ab55}; !- Thermal Zone Name

OS:Surface,
  {d7d134ad-0580-4ae1-a1ad-3991fa2e191a}, !- Handle
  Surface 7,                              !- Name
  Floor,                                  !- Surface Type
  {a9a110cf-a0e0-4555-b6b8-dbdbc9afa6c5}, !- Construction Name
  {8d304a28-f8d4-46d5-af91-f2ca9348e570}, !- Space Name
  Ground,                                 !- Outside Boundary Condition
  ,                                       !- Outside Boundary Condition Object
  NoSun,                                  !- Sun Exposure
  NoWind,                                 !- Wind Exposure
  ,                                       !- View Factor to Ground
  ,                                       !- Number of Vertices
  0, 2.66453525910038e-15, 0,             !- X,Y,Z Vertex 1 {m}
  0, 14.1354845303757, 0,                 !- X,Y,Z Vertex 2 {m}
  4.572, 14.1354845303757, 0,             !- X,Y,Z Vertex 3 {m}
  4.572, 2.66453525910038e-15, 0;         !- X,Y,Z Vertex 4 {m}

OS:Surface,
  {fec7153c-e2e4-45a6-92dc-127bc81daf3b}, !- Handle
  Surface 8,                              !- Name
  Wall,                                   !- Surface Type
  {41ee0186-c1c6-4ce7-b93f-0ceefc9ff95c}, !- Construction Name
  {8d304a28-f8d4-46d5-af91-f2ca9348e570}, !- Space Name
  Outdoors,                               !- Outside Boundary Condition
  ,                                       !- Outside Boundary Condition Object
  SunExposed,                             !- Sun Exposure
  WindExposed,                            !- Wind Exposure
  ,                                       !- View Factor to Ground
  ,                                       !- Number of Vertices
  0, 14.1354845303757, 3.6576,            !- X,Y,Z Vertex 1 {m}
  0, 14.1354845303757, 0,                 !- X,Y,Z Vertex 2 {m}
  0, 2.66453525910038e-15, 0,             !- X,Y,Z Vertex 3 {m}
  0, 2.66453525910038e-15, 3.6576;        !- X,Y,Z Vertex 4 {m}

OS:Surface,
  {9ebb3b92-c92b-43fd-80c5-d3b45bd89923}, !- Handle
  Surface 9,                              !- Name
  Wall,                                   !- Surface Type
  ,                                       !- Construction Name
  {8d304a28-f8d4-46d5-af91-f2ca9348e570}, !- Space Name
  Surface,                                !- Outside Boundary Condition
  {e6a25142-593a-4eb7-a5b0-c1b970956c14}, !- Outside Boundary Condition Object
  NoSun,                                  !- Sun Exposure
  NoWind,                                 !- Wind Exposure
  ,                                       !- View Factor to Ground
  ,                                       !- Number of Vertices
  4.572, 14.1354845303757, 3.6576,        !- X,Y,Z Vertex 1 {m}
  4.572, 14.1354845303757, 0,             !- X,Y,Z Vertex 2 {m}
  0, 14.1354845303757, 0,                 !- X,Y,Z Vertex 3 {m}
  0, 14.1354845303757, 3.6576;            !- X,Y,Z Vertex 4 {m}

OS:Surface,
  {85ead98e-e5c0-4c0f-90f3-b66cf05f4320}, !- Handle
  Surface 10,                             !- Name
  Wall,                                   !- Surface Type
  ,                                       !- Construction Name
  {8d304a28-f8d4-46d5-af91-f2ca9348e570}, !- Space Name
  Surface,                                !- Outside Boundary Condition
  {0658efe8-2f79-4839-bd51-1ee73080195d}, !- Outside Boundary Condition Object
  NoSun,                                  !- Sun Exposure
  NoWind,                                 !- Wind Exposure
  ,                                       !- View Factor to Ground
  ,                                       !- Number of Vertices
  4.572, 2.66453525910038e-15, 3.6576,    !- X,Y,Z Vertex 1 {m}
  4.572, 2.66453525910038e-15, 0,         !- X,Y,Z Vertex 2 {m}
  4.572, 14.1354845303757, 0,             !- X,Y,Z Vertex 3 {m}
  4.572, 14.1354845303757, 3.6576;        !- X,Y,Z Vertex 4 {m}

OS:Surface,
  {38343acc-4778-4faa-8282-278bf21c7793}, !- Handle
  Surface 11,                             !- Name
  Wall,                                   !- Surface Type
  ,                                       !- Construction Name
  {8d304a28-f8d4-46d5-af91-f2ca9348e570}, !- Space Name
  Surface,                                !- Outside Boundary Condition
  {94c223eb-e06f-4de6-a4c4-f1b71cad0518}, !- Outside Boundary Condition Object
  NoSun,                                  !- Sun Exposure
  NoWind,                                 !- Wind Exposure
  ,                                       !- View Factor to Ground
  ,                                       !- Number of Vertices
  0, 2.66453525910038e-15, 3.6576,        !- X,Y,Z Vertex 1 {m}
  0, 2.66453525910038e-15, 0,             !- X,Y,Z Vertex 2 {m}
  4.572, 2.66453525910038e-15, 0,         !- X,Y,Z Vertex 3 {m}
  4.572, 2.66453525910038e-15, 3.6576;    !- X,Y,Z Vertex 4 {m}

OS:Surface,
  {95ff4d2d-a815-4f70-9306-a84290447935}, !- Handle
  Surface 12,                             !- Name
  RoofCeiling,                            !- Surface Type
  {30363f91-8e2c-4832-8a39-c267af7145f7}, !- Construction Name
  {8d304a28-f8d4-46d5-af91-f2ca9348e570}, !- Space Name
  Outdoors,                               !- Outside Boundary Condition
  ,                                       !- Outside Boundary Condition Object
  SunExposed,                             !- Sun Exposure
  WindExposed,                            !- Wind Exposure
  ,                                       !- View Factor to Ground
  ,                                       !- Number of Vertices