
OS:Version,
  {9f467462-c011-4d77-a61f-52a61ba6fa00}, !- Handle
  2.9.1;                                  !- Version Identifier

OS:RunPeriodControl:DaylightSavingTime,
  {5251eeff-8e00-4152-81ea-95bbd309eb0d}, !- Handle
  2nd Sunday in March,                    !- Start Date
  1st Sunday in November;                 !- End Date

OS:YearDescription,
  {9ded9474-2d67-4830-a7e2-cf760151d9de}, !- Handle
  2015,                                   !- Calendar Year
  ,                                       !- Day of Week for Start Day
  ;                                       !- Is Leap Year

OS:Timestep,
  {31b00e51-b080-45c2-aa21-2823acad7e22}, !- Handle
  4;                                      !- Number of Timesteps per Hour

OS:RunPeriod,
  {fd0b0e4e-894a-4bab-b8e7-eae068d024d7}, !- Handle
  Run Period 1,                           !- Name
  1,                                      !- Begin Month
  1,                                      !- Begin Day of Month
  12,                                     !- End Month
  30,                                     !- End Day of Month
  ,                                       !- Use Weather File Holidays and Special Days
  ,                                       !- Use Weather File Daylight Saving Period
  ,                                       !- Apply Weekend Holiday Rule
  ,                                       !- Use Weather File Rain Indicators
  ,                                       !- Use Weather File Snow Indicators
  ;                                       !- Number of Times Runperiod to be Repeated

OS:Site,
  {d1f5b808-7873-430d-b484-16885f5b7a0d}, !- Handle
  CA_LOS-ANGELES-DOWNTOWN-_-_USA,         !- Name
  34.03,                                  !- Latitude {deg}
  -118.3,                                 !- Longitude {deg}
  -8,                                     !- Time Zone {hr}
  56,                                     !- Elevation {m}
  City;                                   !- Terrain

OS:Site:WaterMainsTemperature,
  {76e60cbb-0cc7-42fc-b114-9cf15fdece7e}, !- Handle
  Correlation,                            !- Calculation Method
  ,                                       !- Temperature Schedule Name
  17.9083333333333,                       !- Annual Average Outdoor Air Temperature {C}
  10.6;                                   !- Maximum Difference In Monthly Average Outdoor Air Temperatures {deltaC}

OS:SizingPeriod:DesignDay,
  {5abb77d6-0351-4426-a92f-1d7983dbad16}, !- Handle
  CA_LOS-ANGELES-DOWNTOWN- Ann Clg .4% Condns DB=>MWB 1, !- Name
  32.8,                                   !- Maximum Dry-Bulb Temperature {C}
  9.7,                                    !- Daily Dry-Bulb Temperature Range {deltaC}
  18.9,                                   !- Humidity Indicating Conditions at Maximum Dry-Bulb
  100654,                                 !- Barometric Pressure {Pa}
  1.5,                                    !- Wind Speed {m/s}
  0,                                      !- Wind Direction {deg}
  0,                                      !- Sky Clearness
  0,                                      !- Rain Indicator
  0,                                      !- Snow Indicator
  21,                                     !- Day of Month
  8,                                      !- Month
  SummerDesignDay,                        !- Day Type
  0,                                      !- Daylight Saving Time Indicator
  Wetbulb,                                !- Humidity Indicating Type
  ,                                       !- Humidity Indicating Day Schedule Name
  DefaultMultipliers,                     !- Dry-Bulb Temperature Range Modifier Type
  ,                                       !- Dry-Bulb Temperature Range Modifier Schedule Name
  ASHRAETau,                              !- Solar Model Indicator
  ,                                       !- Beam Solar Day Schedule Name
  ,                                       !- Diffuse Solar Day Schedule Name
  0.361,                                  !- ASHRAE Taub {dimensionless}
  2.436;                                  !- ASHRAE Taud {dimensionless}

OS:SizingPeriod:DesignDay,
  {f205b59c-79b0-400d-a249-d7363b330e0c}, !- Handle
  CA_LOS-ANGELES-DOWNTOWN- Ann Clg .4% Condns WB=>MDB 1, !- Name
  29.2,                                   !- Maximum Dry-Bulb Temperature {C}
  9.7,                                    !- Daily Dry-Bulb Temperature Range {deltaC}
  22,                                     !- Humidity Indicating Conditions at Maximum Dry-Bulb
  100654,                                 !- Barometric Pressure {Pa}
  1.5,                                    !- Wind Speed {m/s}
  0,                                      !- Wind Direction {deg}
  0,                                      !- Sky Clearness
  0,                                      !- Rain Indicator
  0,                                      !- Snow Indicator
  21,                                     !- Day of Month
  8,                                      !- Month
  SummerDesignDay,                        !- Day Type
  0,                                      !- Daylight Saving Time Indicator
  Wetbulb,                                !- Humidity Indicating Type
  ,                                       !- Humidity Indicating Day Schedule Name
  DefaultMultipliers,                     !- Dry-Bulb Temperature Range Modifier Type
  ,                                       !- Dry-Bulb Temperature Range Modifier Schedule Name
  ASHRAETau,                              !- Solar Model Indicator
  ,                                       !- Beam Solar Day Schedule Name
  ,                                       !- Diffuse Solar Day Schedule Name
  0.361,                                  !- ASHRAE Taub {dimensionless}
  2.436;                                  !- ASHRAE Taud {dimensionless}

OS:SizingPeriod:DesignDay,
  {6c366246-915f-4057-90ae-0da04cfded5d}, !- Handle
  CA_LOS-ANGELES-DOWNTOWN- Ann Htg 99.6% Condns DB 1, !- Name
  6.2,                                    !- Maximum Dry-Bulb Temperature {C}
  0,                                      !- Daily Dry-Bulb Temperature Range {deltaC}
  6.2,                                    !- Humidity Indicating Conditions at Maximum Dry-Bulb
  100654,                                 !- Barometric Pressure {Pa}
  0.2,                                    !- Wind Speed {m/s}
  0,                                      !- Wind Direction {deg}
  0,                                      !- Sky Clearness
  0,                                      !- Rain Indicator
  0,                                      !- Snow Indicator
  21,                                     !- Day of Month
  12,                                     !- Month
  WinterDesignDay,                        !- Day Type
  0,                                      !- Daylight Saving Time Indicator
  Wetbulb,                                !- Humidity Indicating Type
  ,                                       !- Humidity Indicating Day Schedule Name
  DefaultMultipliers,                     !- Dry-Bulb Temperature Range Modifier Type
  ,                                       !- Dry-Bulb Temperature Range Modifier Schedule Name
  ASHRAEClearSky;                         !- Solar Model Indicator

OS:ClimateZones,
  {a5bb00ee-7b82-4d73-a105-31c2651b3b66}, !- Handle
  ,                                       !- Active Institution
  ,                                       !- Active Year
  CEC,                                    !- Climate Zone Institution Name 1
  California Climate Zone Descriptions,   !- Climate Zone Document Name 1
  1995,                                   !- Climate Zone Document Year 1
  ,                                       !- Climate Zone Value 1
  ASHRAE,                                 !- Climate Zone Institution Name 2
  ANSI/ASHRAE Standard 169,               !- Climate Zone Document Name 2
  2006,                                   !- Climate Zone Document Year 2
  3B;                                     !- Climate Zone Value 2

OS:SpaceType,
  {9e4915f3-f723-4862-8cf3-742fe56b85dc}, !- Handle
  SCn WarehouseCond - DEER Pre-1975,      !- Name
  ,                                       !- Default Construction Set Name
  {d29e31e9-9a41-4599-9626-5adb145cc705}, !- Default Schedule Set Name
  ,                                       !- Group Rendering Name
  {b3a0b1e4-1a38-4a55-ba9b-642baba47b53}, !- Design Specification Outdoor Air Object Name
  ,                                       !- Standards Template
  SCn,                                    !- Standards Building Type
  WarehouseCond;                          !- Standards Space Type

OS:Building,
  {d2bd4852-3f7f-4fdc-a9a1-672c5daf21e8}, !- Handle
  DEER Pre-1975|SCn,                      !- Name
  ,                                       !- Building Sector Type
  270,                                    !- North Axis {deg}
  ,                                       !- Nominal Floor to Floor Height {m}
  ,                                       !- Space Type Name
  {d0c84bd9-e61a-4c63-af57-22608693a8e5}, !- Default Construction Set Name
  {a32be94d-3022-4b7e-af73-91cbf3aac89b}, !- Default Schedule Set Name
  ,                                       !- Standards Number of Stories
  ,                                       !- Standards Number of Above Ground Stories
  ,                                       !- Standards Template
  SCn;                                    !- Standards Building Type

OS:BuildingStory,
  {4aea7483-0128-4bdb-b8e5-1309d784ce99}, !- Handle
  Story Ground,                           !- Name
  0,                                      !- Nominal Z Coordinate {m}
  3.048,                                  !- Nominal Floor to Floor Height {m}
  ,                                       !- Default Construction Set Name
  ,                                       !- Default Schedule Set Name
  ;                                       !- Group Rendering Name

OS:Space,
  {4a358369-d0d0-4ff8-8b6d-4bd82098dd10}, !- Handle
  SCn WarehouseCond A end_a - Story Ground, !- Name
  {9e4915f3-f723-4862-8cf3-742fe56b85dc}, !- Space Type Name
  ,                                       !- Default Construction Set Name
  ,                                       !- Default Schedule Set Name
  -0,                                     !- Direction of Relative North {deg}
  -20.1606249903122,                      !- X Origin {m}
  -10.0803124951561,                      !- Y Origin {m}
  0,                                      !- Z Origin {m}
  {4aea7483-0128-4bdb-b8e5-1309d784ce99}, !- Building Story Name
  {24444fa2-251f-4901-a433-acb1b0088a6e}; !- Thermal Zone Name

OS:Surface,
  {4c0b9136-ba54-48d7-bcb5-788def48d357}, !- Handle
  Surface 1,                              !- Name
  Floor,                                  !- Surface Type
  {8bdf60b8-a224-4c18-a327-bc9afbac5036}, !- Construction Name
  {4a358369-d0d0-4ff8-8b6d-4bd82098dd10}, !- Space Name
  Ground,                                 !- Outside Boundary Condition
  ,                                       !- Outside Boundary Condition Object
  NoSun,                                  !- Sun Exposure
  NoWind,                                 !- Wind Exposure
  ,                                       !- View Factor to Ground
  ,                                       !- Number of Vertices
  -1.77635683940025e-14, -1.06581410364015e-14, 0, !- X,Y,Z Vertex 1 {m}
  -1.77635683940025e-14, 4.572, 0,        !- X,Y,Z Vertex 2 {m}
  4.57199999999998, 4.572, 0,             !- X,Y,Z Vertex 3 {m}
  4.57199999999998, -1.06581410364015e-14, 0; !- X,Y,Z Vertex 4 {m}

OS:Surface,
  {51a147b0-e596-498b-9ad6-54a86856e499}, !- Handle
  Surface 2,                              !- Name
  Wall,                                   !- Surface Type
  {323bbf24-0d0a-43b7-afde-0969d117087a}, !- Construction Name
  {4a358369-d0d0-4ff8-8b6d-4bd82098dd10}, !- Space Name
  Outdoors,                               !- Outside Boundary Condition
  ,                                       !- Outside Boundary Condition Object
  SunExposed,                             !- Sun Exposure
  WindExposed,                            !- Wind Exposure
  ,                                       !- View Factor to Ground
  ,                                       !- Number of Vertices
  -1.77635683940025e-14, 4.572, 3.048,    !- X,Y,Z Vertex 1 {m}
  -1.77635683940025e-14, 4.572, 0,        !- X,Y,Z Vertex 2 {m}
  -1.77635683940025e-14, -1.06581410364015e-14, 0, !- X,Y,Z Vertex 3 {m}
  -1.77635683940025e-14, -1.06581410364015e-14, 3.048; !- X,Y,Z Vertex 4 {m}

OS:Surface,
  {fc0c5463-5f36-4dff-ad1a-fe10e50e24af}, !- Handle
  Surface 3,                              !- Name
  Wall,                                   !- Surface Type
  ,                                       !- Construction Name
  {4a358369-d0d0-4ff8-8b6d-4bd82098dd10}, !- Space Name
  Surface,                                !- Outside Boundary Condition
  {4597c18a-b1a8-4eec-90dc-e9be3cd7c932}, !- Outside Boundary Condition Object
  NoSun,                                  !- Sun Exposure
  NoWind,                                 !- Wind Exposure
  ,                                       !- View Factor to Ground
  ,                                       !- Number of Vertices
  4.57199999999998, 4.572, 3.048,         !- X,Y,Z Vertex 1 {m}
  4.57199999999998, 4.572, 0,             !- X,Y,Z Vertex 2 {m}
  -1.77635683940025e-14, 4.572, 0,        !- X,Y,Z Vertex 3 {m}
  -1.77635683940025e-14, 4.572, 3.048;    !- X,Y,Z Vertex 4 {m}

OS:Surface,
  {93dc0a32-f4be-442f-b70e-ff3632e075ad}, !- Handle
  Surface 4,                              !- Name
  Wall,                                   !- Surface Type
  ,                                       !- Construction Name
  {4a358369-d0d0-4ff8-8b6d-4bd82098dd10}, !- Space Name
  Surface,                                !- Outside Boundary Condition
  {582a3dee-dcbb-43e4-81be-0315e1c15c28}, !- Outside Boundary Condition Object
  NoSun,                                  !- Sun Exposure
  NoWind,                                 !- Wind Exposure
  ,                                       !- View Factor to Ground
  ,                                       !- Number of Vertices
  4.57199999999998, -1.06581410364015e-14, 3.048, !- X,Y,Z Vertex 1 {m}
  4.57199999999998, -1.06581410364015e-14, 0, !- X,Y,Z Vertex 2 {m}
  4.57199999999998, 4.572, 0,             !- X,Y,Z Vertex 3 {m}
  4.57199999999998, 4.572, 3.048;         !- X,Y,Z Vertex 4 {m}

OS:Surface,
  {ee3ebc19-387a-482f-baf7-05e0426e5198}, !- Handle
  Surface 5,                              !- Name
  Wall,                                   !- Surface Type
  {323bbf24-0d0a-43b7-afde-0969d117087a}, !- Construction Name
  {4a358369-d0d0-4ff8-8b6d-4bd82098dd10}, !- Space Name
  Outdoors,                               !- Outside Boundary Condition
  ,                                       !- Outside Boundary Condition Object
  SunExposed,                             !- Sun Exposure
  WindExposed,                            !- Wind Exposure
  ,                                       !- View Factor to Ground
  ,                                       !- Number of Vertices
  -1.77635683940025e-14, -1.06581410364015e-14, 3.048, !- X,Y,Z Vertex 1 {m}
  -1.77635683940025e-14, -1.06581410364015e-14, 0, !- X,Y,Z Vertex 2 {m}
  4.57199999999998, -1.06581410364015e-14, 0, !- X,Y,Z Vertex 3 {m}
  4.57199999999998, -1.06581410364015e-14, 3.048; !- X,Y,Z Vertex 4 {m}

OS:Surface,
  {4b21f805-a0fa-4089-991d-28dfa631dfb4}, !- Handle
  Surface 6,                              !- Name
  RoofCeiling,                            !- Surface Type
  ,                                       !- Construction Name
  {4a358369-d0d0-4ff8-8b6d-4bd82098dd10}, !- Space Name
  Surface,                                !- Outside Boundary Condition
  {7e452ac0-a181-46e4-bbfb-59ecd37be636}, !- Outside Boundary Condition Object
  NoSun,                                  !- Sun Exposure
  NoWind,                                 !- Wind Exposure
  ,                                       !- View Factor to Ground
  ,                                       !- Number of Vertices
  4.57199999999998, -1.06581410364015e-14, 3.048, !- X,Y,Z Vertex 1 {m}
  4.57199999999998, 4.572, 3.048,         !- X,Y,Z Vertex 2 {m}
  -1.77635683940025e-14, 4.572, 3.048,    !- X,Y,Z Vertex 3 {m}
  -1.77635683940025e-14, -1.06581410364015e-14, 3.048; !- X,Y,Z Vertex 4 {m}

OS:ThermalZone,
  {24444fa2-251f-4901-a433-acb1b0088a6e}, !- Handle
  Zone SCn WarehouseCond A end_a - Story Ground, !- Name
  1,                                      !- Multiplier
  ,                                       !- Ceiling Height {m}
  ,                                       !- Volume {m3}
  ,                                       !- Floor Area {m2}
  ,                                       !- Zone Inside Convection Algorithm
  ,                                       !- Zone Outside Convection Algorithm
  ,                                       !- Zone Conditioning Equipment List Name
  {2106604c-5b2e-4c28-bff5-3529ca839d61}, !- Zone Air Inlet Port List
  {d7d91db4-2ba4-4734-a70c-97e6cf837c1f}, !- Zone Air Exhaust Port List
  {5407377a-9066-403e-a0b7-d396bc752677}, !- Zone Air Node Name
  {701e86ca-cda8-4d11-943f-da7a6852c7f2}, !- Zone Return Air Port List
  ,                                       !- Primary Daylighting Control Name
  ,                                       !- Fraction of Zone Controlled by Primary Daylighting Control
  ,                                       !- Secondary Daylighting Control Name
  ,                                       !- Fraction of Zone Controlled by Secondary Daylighting Control
  ,                                       !- Illuminance Map Name
  ,                                       !- Group Rendering Name
  {53674fef-26f0-4623-9756-6012fbbe8013}, !- Thermostat Name
  No;                                     !- Use Ideal Air Loads

OS:Node,
  {9799a940-189f-4e6d-9978-bc3a077c0fe5}, !- Handle
  Zone SCn WarehouseCond A end_a - Story Ground Zone Air Node, !- Name
  {5407377a-9066-403e-a0b7-d396bc752677}, !- Inlet Port
  ;                                       !- Outlet Port

OS:Connection,
  {5407377a-9066-403e-a0b7-d396bc752677}, !- Handle
  {7a817f7e-2696-422b-b2ed-5a7eae160762}, !- Name
  {24444fa2-251f-4901-a433-acb1b0088a6e}, !- Source Object
  11,                                     !- Outlet Port
  {9799a940-189f-4e6d-9978-bc3a077c0fe5}, !- Target Object
  2;                                      !- Inlet Port

OS:PortList,
  {2106604c-5b2e-4c28-bff5-3529ca839d61}, !- Handle
  {3cfa34a4-d65b-4ccf-b5ca-619e74fdcd40}, !- Name
  {24444fa2-251f-4901-a433-acb1b0088a6e}, !- HVAC Component
  {067d6642-b481-467c-b4f9-241555bb2f1c}; !- Port 1

OS:PortList,
  {d7d91db4-2ba4-4734-a70c-97e6cf837c1f}, !- Handle
  {ee7dda77-523d-4166-a76b-6c3ab90d03e2}, !- Name
  {24444fa2-251f-4901-a433-acb1b0088a6e}; !- HVAC Component

OS:PortList,
  {701e86ca-cda8-4d11-943f-da7a6852c7f2}, !- Handle
  {2681d98b-3ad4-4173-a893-fa53684b558d}, !- Name
  {24444fa2-251f-4901-a433-acb1b0088a6e}, !- HVAC Component
  {b0fa27cd-3419-411a-a551-9cc369f19741}; !- Port 1

OS:Sizing:Zone,
  {525c07b4-8b36-4a38-b7cf-801b32efe83f}, !- Handle
  {24444fa2-251f-4901-a433-acb1b0088a6e}, !- Zone or ZoneList Name
  SupplyAirTemperature,                   !- Zone Cooling Design Supply Air Temperature Input Method
  12.7777777777778,                       !- Zone Cooling Design Supply Air Temperature {C}
  11.11,                                  !- Zone Cooling Design Supply Air Temperature Difference {deltaC}
  SupplyAirTemperature,                   !- Zone Heating Design Supply Air Temperature Input Method
  50.0000000000001,                       !- Zone Heating Design Supply Air Temperature {C}
  11.11,                                  !- Zone Heating Design Supply Air Temperature Difference {deltaC}
  0.0085,                                 !- Zone Cooling Design Supply Air Humidity Ratio {kg-H2O/kg-air}
  0.008,                                  !- Zone Heating Design Supply Air Humidity Ratio {kg-H2O/kg-air}
  ,                                       !- Zone Heating Sizing Factor
  ,                                       !- Zone Cooling Sizing Factor
  DesignDay,                              !- Cooling Design Air Flow Method
  ,                                       !- Cooling Design Air Flow Rate {m3/s}
  ,                                       !- Cooling Minimum Air Flow per Zone Floor Area {m3/s-m2}
  ,                                       !- Cooling Minimum Air Flow {m3/s}
  ,                                       !- Cooling Minimum Air Flow Fraction
  DesignDay,                              !- Heating Design Air Flow Method
  ,                                       !- Heating Design Air Flow Rate {m3/s}
  ,                                       !- Heating Maximum Air Flow per Zone Floor Area {m3/s-m2}
  ,                                       !- Heating Maximum Air Flow {m3/s}
  ,                                       !- Heating Maximum Air Flow Fraction
  ,                                       !- Design Zone Air Distribution Effectiveness in Cooling Mode
  ,                                       !- Design Zone Air Distribution Effectiveness in Heating Mode
  No,                                     !- Account for Dedicated Outdoor Air System
  NeutralSupplyAir,                       !- Dedicated Outdoor Air System Control Strategy
  autosize,                               !- Dedicated Outdoor Air Low Setpoint Temperature for Design {C}
  autosize;                               !- Dedicated Outdoor Air High Setpoint Temperature for Design {C}

OS:ZoneHVAC:EquipmentList,
  {9e73578d-0918-4fad-b975-b6659595fb0e}, !- Handle
  Zone SCn WarehouseCond A end_a - Story Ground Zone HVAC Equipment List, !- Name
  {24444fa2-251f-4901-a433-acb1b0088a6e}, !- Thermal Zone
  ,                                       !- Load Distribution Scheme
  {d6d0d739-216f-4df5-b1cd-c51da33e6337}, !- Zone Equipment 1
  1,                                      !- Zone Equipment Cooling Sequence 1
  1,                                      !- Zone Equipment Heating or No-Load Sequence 1
  ,                                       !- Zone Equipment Sequential Cooling Fraction Schedule Name 1
  ;                                       !- Zone Equipment Sequential Heating Fraction Schedule Name 1

OS:Space,
  {d7becba0-88c7-40f2-bafd-260dd1c56fc4}, !- Handle
  SCn WarehouseCond B end_a - Story Ground, !- Name
  {9e4915f3-f723-4862-8cf3-742fe56b85dc}, !- Space Type Name
  ,                                       !- Default Construction Set Name
  ,                                       !- Default Schedule Set Name
  -0,                                     !- Direction of Relative North {deg}
  -20.1606249903122,                      !- X Origin {m}
  -5.50831249515609,                      !- Y Origin {m}
  0,                                      !- Z Origin {m}
  {4aea7483-0128-4bdb-b8e5-1309d784ce99}, !- Building Story Name
  {58659465-0e0f-4905-bcc6-2ffc4d6f45e1}; !- Thermal Zone Name

OS:Surface,
  {5710d006-8ef7-4084-93b8-826a6dadcc65}, !- Handle
  Surface 7,                              !- Name
  Floor,                                  !- Surface Type
  {8bdf60b8-a224-4c18-a327-bc9afbac5036}, !- Construction Name
  {d7becba0-88c7-40f2-bafd-260dd1c56fc4}, !- Space Name
  Ground,                                 !- Outside Boundary Condition
  ,                                       !- Outside Boundary Condition Object
  NoSun,                                  !- Sun Exposure
  NoWind,                                 !- Wind Exposure
  ,                                       !- View Factor to Ground
  ,                                       !- Number of Vertices
  -1.77635683940025e-14, 0, 0,            !- X,Y,Z Vertex 1 {m}
  -1.77635683940025e-14, 11.0166249903122, 0, !- X,Y,Z Vertex 2 {m}
  4.57199999999998, 11.0166249903122, 0,  !- X,Y,Z Vertex 3 {m}
  4.57199999999998, 0, 0;                 !- X,Y,Z Vertex 4 {m}

OS:Surface,
  {943d9975-8b57-469b-82db-db156b220c7a}, !- Handle
  Surface 8,                              !- Name
  Wall,                                   !- Surface Type
  {323bbf24-0d0a-43b7-afde-0969d117087a}, !- Construction Name
  {d7becba0-88c7-40f2-bafd-260dd1c56fc4}, !- Space Name
  Outdoors,                               !- Outside Boundary Condition
  ,                                       !- Outside Boundary Condition Object
  SunExposed,                             !- Sun Exposure
  WindExposed,                            !- Wind Exposure
  ,                                       !- View Factor to Ground
  ,                                       !- Number of Vertices
  -1.77635683940025e-14, 11.0166249903122, 3.048, !- X,Y,Z Vertex 1 {m}
  -1.77635683940025e-14, 11.0166249903122, 0, !- X,Y,Z Vertex 2 {m}
  -1.77635683940025e-14, 0, 0,            !- X,Y,Z Vertex 3 {m}
  -1.77635683940025e-14, 0, 3.048;        !- X,Y,Z Vertex 4 {m}

OS:Surface,
  {38e1b066-7ec1-4265-8b13-8f35dffb08e3}, !- Handle
  Surface 9,                              !- Name
  Wall,                                   !- Surface Type
  ,                                       !- Construction Name
  {d7becba0-88c7-40f2-bafd-260dd1c56fc4}, !- Space Name
  Surface,                                !- Outside Boundary Condition
  {2058fa98-20d2-45ae-87c2-5a237b869938}, !- Outside Boundary Condition Object
  NoSun,                                  !- Sun Exposure
  NoWind,                                 !- Wind Exposure
  ,                                       !- View Factor to Ground
  ,                                       !- Number of Vertices
  4.57199999999998, 11.0166249903122, 3.048, !- X,Y,Z Vertex 1 {m}
  4.57199999999998, 11.0166249903122, 0,  !- X,Y,Z Vertex 2 {m}
  -1.77635683940025e-14, 11.0166249903122, 0, !- X,Y,Z Vertex 3 {m}
  -1.77635683940025e-14, 11.0166249903122, 3.048; !- X,Y,Z Vertex 4 {m}

OS:Surface,
  {f61b1fb2-f328-45dc-b27e-e900dc52ef61}, !- Handle
  Surface 10,                             !- Name
  Wall,                                   !- Surface Type
  ,                                       !- Construction Name
  {d7becba0-88c7-40f2-bafd-260dd1c56fc4}, !- Space Name
  Surface,                                !- Outside Boundary Condition
  {7ad6459e-1fb1-4fb1-84de-0fc049bb13f4}, !- Outside Boundary Condition Object
  NoSun,                                  !- Sun Exposure
  NoWind,                                 !- Wind Exposure
  ,                                       !- View Factor to Ground
  ,                                       !- Number of Vertices
  4.57199999999998, 0, 3.048,             !- X,Y,Z Vertex 1 {m}
  4.57199999999998, 0, 0,                 !- X,Y,Z Vertex 2 {m}
  4.57199999999998, 11.0166249903122, 0,  !- X,Y,Z Vertex 3 {m}
  4.57199999999998, 11.0166249903122, 3.048; !- X,Y,Z Vertex 4 {m}

OS:Surface,
  {4597c18a-b1a8-4eec-90dc-e9be3cd7c932}, !- Handle
  Surface 11,                             !- Name
  Wall,                                   !- Surface Type
  ,                                       !- Construction Name
  {d7becba0-88c7-40f2-bafd-260dd1c56fc4}, !- Space Name
  Surface,                                !- Outside Boundary Condition
  {fc0c5463-5f36-4dff-ad1a-fe10e50e24af}, !- Outside Boundary Condition Object
  NoSun,                                  !- Sun Exposure
  NoWind,                                 !- Wind Exposure
  ,                                       !- View Factor to Ground
  ,                                       !- Number of Vertices
  -1.77635683940025e-14, 0, 3.048,        !- X,Y,Z Vertex 1 {m}
  -1.77635683940025e-14, 0, 0,            !- X,Y,Z Vertex 2 {m}
  4.57199999999998, 0, 0,                 !- X,Y,Z Vertex 3 {m}
  4.57199999999998, 0, 3.048;             !- X,Y,Z Vertex 4 {m}

OS:Surface,
  {0d9ad639-20da-4437-abba-5d4b46d47e32}, !- Handle
  Surface 12,                             !- Name
  RoofCeiling,                            !- Surface Type
  ,                                       !- Construction Name
  {d7becba0-88c7-40f2-bafd-260dd1c56fc4}, !- Space Name
  Surface,                                !- Outside Boundary Condition
  {2e29d33b-5fd0-447f-b0a8-c931f50f5a38}, !- Outside Boundary Condition Object
  NoSun,                                  !- Sun Exposure
  NoWind,                                 !- Wind Exposure
  ,                                       !- View Factor to Ground
  ,                                       !- Number of Vertices
  4.57199999999998, 0, 3.048,             !- X,Y,Z Vertex 1 {m}
  4.57199999999998, 11.0166249903122, 3.048, !- X,Y,Z Vertex 2 {m}
  -1.77635683940025e-14, 11.0166249903122, 3.048, !- X,Y,Z Vertex 3 {m}
  -1.77635683940025e-14, 0, 3.048;        !- X,Y,Z Vertex 4 {m}

OS:ThermalZone,
  {58659465-0e0f-4905-bcc6-2ffc4d6f45e1}, !- Handle
  Zone SCn WarehouseCond B end_a - Story Ground, !- Name
  1,                                      !- Multiplier
  ,                                       !- Ceiling Height {m}
  ,                                       !- Volume {m3}
  ,                                       !- Floor Area {m2}
  ,                                       !- Zone Inside Convection Algorithm
  ,                                       !- Zone Outside Convection Algorithm
  ,                                       !- Zone Conditioning Equipment List Name
  {f264c103-efc9-4203-81b0-3e8dbd93405f}, !- Zone Air Inlet Port List
  {b65168ca-e43f-45b5-9d61-86f15df8ebf0}, !- Zone Air Exhaust Port List
  {c394e53b-a87d-43ef-b5b1-e1964874d2d4}, !- Zone Air Node Name
  {ce842299-050f-4057-89f7-ba58668e4d7b}, !- Zone Return Air Port List
  ,                                       !- Primary Daylighting Control Name
  ,                                       !- Fraction of Zone Controlled by Primary Daylighting Control