
OS:Version,
  {fb27cec5-ad66-4f19-b091-1ea2c5ed8616}, !- Handle
  3.6.1;                                  !- Version Identifier

OS:Facility,
  {82dae3a2-3a41-4529-a025-4f57af295ceb}; !- Handle

OS:Site,
  {78dff850-96d2-4f5b-8842-5ef4c1805773}, !- Handle
  Chicago Ohare Intl Ap,                  !- Name
  41.98,                                  !- Latitude {deg}
  -87.92,                                 !- Longitude {deg}
  -6,                                     !- Time Zone {hr}
  201,                                    !- Elevation {m}
  City;                                   !- Terrain

OS:SimulationControl,
  {dc1c79d2-f863-45a3-a634-e1d60af62426}, !- Handle
  ,                                       !- Do Zone Sizing Calculation
  ,                                       !- Do System Sizing Calculation
  ,                                       !- Do Plant Sizing Calculation
  No,                                     !- Run Simulation for Sizing Periods
  Yes,                                    !- Run Simulation for Weather File Run Periods
  ,                                       !- Loads Convergence Tolerance Value {W}
  ,                                       !- Temperature Convergence Tolerance Value {deltaC}
  ,                                       !- Solar Distribution
  ,                                       !- Maximum Number of Warmup Days
  ,                                       !- Minimum Number of Warmup Days
  No,                                     !- Do HVAC Sizing Simulation for Sizing Periods
  1;                                      !- Maximum Number of HVAC Sizing Simulation Passes

OS:Sizing:Parameters,
  {51aaebc1-a264-459b-a347-2d5564e664bc}, !- Handle
  1.25,                                   !- Heating Sizing Factor
  1.15;                                   !- Cooling Sizing Factor

OS:Timestep,
  {b6a7a676-d71b-41c3-9257-edf15492afea}, !- Handle
  4;                                      !- Number of Timesteps per Hour

OS:ShadowCalculation,
  {d429158c-76c3-4f4f-847e-821b85638998}, !- Handle
  PolygonClipping,                        !- Shading Calculation Method
  ,                                       !- Shading Calculation Update Frequency Method
  20,                                     !- Shading Calculation Update Frequency
  15000,                                  !- Maximum Figures in Shadow Overlap Calculations
  ,                                       !- Polygon Clipping Algorithm
  512,                                    !- Pixel Counting Resolution
  ,                                       !- Sky Diffuse Modeling Algorithm
  No,                                     !- Output External Shading Calculation Results
  No,                                     !- Disable Self-Shading Within Shading Zone Groups
  No;                                     !- Disable Self-Shading From Shading Zone Groups to Other Zones

OS:HeatBalanceAlgorithm,
  {b0df8cb4-b26a-48fc-999f-e72488960349}, !- Handle
  ConductionTransferFunction,             !- Algorithm
  200;                                    !- Surface Temperature Upper Limit {C}

OS:RunPeriod,
  {56864f75-0d78-4b5d-a590-46c8645eef47}, !- Handle
  Run Period 1,                           !- Name
  1,                                      !- Begin Month
  1,                                      !- Begin Day of Month
  12,                                     !- End Month
  31,                                     !- End Day of Month
  ,                                       !- Use Weather File Holidays and Special Days
  ,                                       !- Use Weather File Daylight Saving Period
  ,                                       !- Apply Weekend Holiday Rule
  ,                                       !- Use Weather File Rain Indicators
  ,                                       !- Use Weather File Snow Indicators
  ;                                       !- Number of Times Runperiod to be Repeated

OS:LifeCycleCost:Parameters,
  {11b124da-888d-4997-96e0-2816e5021dce}, !- Handle
  ,                                       !- Analysis Type
  ,                                       !- Discounting Convention
  ,                                       !- Inflation Approach
  ,                                       !- Real Discount Rate
  ,                                       !- Nominal Discount Rate
  ,                                       !- Inflation
  ,                                       !- Base Date Month
  ,                                       !- Base Date Year
  ,                                       !- Service Date Month
  ,                                       !- Service Date Year
  ;                                       !- Length of Study Period in Years

OS:Site:WaterMainsTemperature,
  {86b630f9-dcbf-44b1-a749-970a48d43b13}, !- Handle
  Correlation,                            !- Calculation Method
  ,                                       !- Temperature Schedule Name
  8.40416666666667,                       !- Annual Average Outdoor Air Temperature {C}
  28.95;                                  !- Maximum Difference In Monthly Average Outdoor Air Temperatures {deltaC}

OS:ClimateZones,
  {fc9cc8be-b93f-43f9-a701-11f2be951619}, !- Handle
  ASHRAE,                                 !- Climate Zone Institution Name 1
  ANSI/ASHRAE Standard 169,               !- Climate Zone Document Name 1
  2006,                                   !- Climate Zone Document Year 1
  ASHRAE 169-2013-6A,                     !- Climate Zone Value 1
  CEC,                                    !- Climate Zone Institution Name 2
  California Climate Zone Descriptions,   !- Climate Zone Document Name 2
  1995,                                   !- Climate Zone Document Year 2
  ;                                       !- Climate Zone Value 2

OS:Building,
  {78a59803-048d-494f-84a4-ea1356da67d5}, !- Handle
  ComStock DOE Ref 1980-2004|Warehouse,   !- Name
  ,                                       !- Building Sector Type
  315,                                    !- North Axis {deg}
  ,                                       !- Nominal Floor to Floor Height {m}
  ,                                       !- Space Type Name
  {3583e79a-b535-4ca4-a2ab-fda523bb191c}, !- Default Construction Set Name
  {3894ca60-4410-4cb5-94f1-e110b7fed890}, !- Default Schedule Set Name
  ,                                       !- Standards Number of Stories
  ,                                       !- Standards Number of Above Ground Stories
  ,                                       !- Standards Template
  Warehouse;                              !- Standards Building Type

OS:AdditionalProperties,
  {a81b2d34-d793-4494-b09a-1a05f4374811}, !- Handle
  {78a59803-048d-494f-84a4-ea1356da67d5}, !- Object Name
  grid_region,                            !- Feature Name 1
  String,                                 !- Feature Data Type 1
  MROEc,                                  !- Feature Value 1
  hvac_system_type,                       !- Feature Name 2
  String,                                 !- Feature Data Type 2
  PTAC with gas boiler,                   !- Feature Value 2
  wall_as_constructed_template,           !- Feature Name 3
  String,                                 !- Feature Data Type 3
  ComStock DOE Ref 1980-2004,             !- Feature Value 3
  wall_template,                          !- Feature Name 4
  String,                                 !- Feature Data Type 4
  ComStock DOE Ref 1980-2004,             !- Feature Value 4
  roof_as_constructed_template,           !- Feature Name 5
  String,                                 !- Feature Data Type 5
  ComStock DOE Ref 1980-2004,             !- Feature Value 5
  roof_template,                          !- Feature Name 6
  String,                                 !- Feature Data Type 6
  ComStock DOE Ref 1980-2004,             !- Feature Value 6
  exterior_lighting_as_constructed_template, !- Feature Name 7
  String,                                 !- Feature Data Type 7
  ComStock DOE Ref 1980-2004,             !- Feature Value 7
  exterior_lighting_template,             !- Feature Name 8
  String,                                 !- Feature Data Type 8
  ComStock 90.1-2007,                     !- Feature Value 8
  interior_equipment_as_constructed_template, !- Feature Name 9
  String,                                 !- Feature Data Type 9
  ComStock DOE Ref 1980-2004,             !- Feature Value 9
  interior_equipment_template,            !- Feature Name 10
  String,                                 !- Feature Data Type 10
  ComStock DOE Ref 1980-2004,             !- Feature Value 10
  service_water_heating_as_constructed_template, !- Feature Name 11
  String,                                 !- Feature Data Type 11
  ComStock DOE Ref 1980-2004,             !- Feature Value 11
  service_water_heating_template,         !- Feature Name 12
  String,                                 !- Feature Data Type 12
  ComStock 90.1-2004,                     !- Feature Value 12
  hvac_as_constructed_template,           !- Feature Name 13
  String,                                 !- Feature Data Type 13
  ComStock DOE Ref 1980-2004,             !- Feature Value 13
  hvac_template,                          !- Feature Name 14
  String,                                 !- Feature Data Type 14
  ComStock 90.1-2013;                     !- Feature Value 14

OS:SpaceType,
  {3aa796dd-c704-47bc-9528-df52a03e71d6}, !- Handle
  Warehouse Office - ComStock DOE Ref 1980-2004, !- Name
  ,                                       !- Default Construction Set Name
  {22db2e09-7495-46ea-b011-f38f8bd58445}, !- Default Schedule Set Name
  {5d4787e8-9d44-41a3-8086-735b39db3858}, !- Group Rendering Name
  {1ef38b47-efed-4c0d-8321-2da0e4a8fcf8}, !- Design Specification Outdoor Air Object Name
  ,                                       !- Standards Template
  Warehouse,                              !- Standards Building Type
  Office;                                 !- Standards Space Type

OS:Rendering:Color,
  {5d4787e8-9d44-41a3-8086-735b39db3858}, !- Handle
  Warehouse Office,                       !- Name
  120,                                    !- Rendering Red Value
  230,                                    !- Rendering Green Value
  199;                                    !- Rendering Blue Value

OS:SpaceType,
  {18455088-560a-4b6c-9d15-96febbe95d30}, !- Handle
  Warehouse Fine - ComStock DOE Ref 1980-2004, !- Name
  ,                                       !- Default Construction Set Name
  {1ca13867-d17d-46d5-a9d2-7bd43600d463}, !- Default Schedule Set Name
  {59bab1a2-81ef-48ec-884e-7179b31fd324}, !- Group Rendering Name
  {9000e411-98c8-4073-a3d6-0913f5128955}, !- Design Specification Outdoor Air Object Name
  ,                                       !- Standards Template
  Warehouse,                              !- Standards Building Type
  Fine;                                   !- Standards Space Type

OS:Rendering:Color,
  {59bab1a2-81ef-48ec-884e-7179b31fd324}, !- Handle
  Warehouse Fine,                         !- Name
  120,                                    !- Rendering Red Value
  149,                                    !- Rendering Green Value
  230;                                    !- Rendering Blue Value

OS:SpaceType,
  {75f6924d-b3a0-4a5a-b26e-8bc327f89002}, !- Handle
  Warehouse Bulk - ComStock DOE Ref 1980-2004, !- Name
  ,                                       !- Default Construction Set Name
  {e5d7e55f-791b-49aa-93ee-fd5eee156c82}, !- Default Schedule Set Name
  {31fb0b0a-c898-4e56-9957-7b0991bb8275}, !- Group Rendering Name
  {439b80ab-3284-4a21-b30d-c259b81d12eb}, !- Design Specification Outdoor Air Object Name
  ,                                       !- Standards Template
  Warehouse,                              !- Standards Building Type
  Bulk;                                   !- Standards Space Type

OS:Rendering:Color,
  {31fb0b0a-c898-4e56-9957-7b0991bb8275}, !- Handle
  Warehouse Bulk,                         !- Name
  41,                                     !- Rendering Red Value
  31,                                     !- Rendering Green Value
  169;                                    !- Rendering Blue Value

OS:BuildingStory,
  {41a55ba3-c34f-4554-be32-bfbc6d0835e9}, !- Handle
  Story Ground,                           !- Name
  0,                                      !- Nominal Z Coordinate {m}
  8.5344,                                 !- Nominal Floor to Floor Height {m}
  ,                                       !- Default Construction Set Name
  ,                                       !- Default Schedule Set Name
  ;                                       !- Group Rendering Name

OS:Space,
  {623b991d-de59-443f-a7c3-bf24368e6b41}, !- Handle
  Warehouse Bulk A end_a - Story Ground,  !- Name
  {75f6924d-b3a0-4a5a-b26e-8bc327f89002}, !- Space Type Name
  ,                                       !- Default Construction Set Name
  ,                                       !- Default Schedule Set Name
  -0,                                     !- Direction of Relative North {deg}
  -27.8041259815877,                      !- X Origin {m}
  -13.9020629907938,                      !- Y Origin {m}
  0,                                      !- Z Origin {m}
  {41a55ba3-c34f-4554-be32-bfbc6d0835e9}, !- Building Story Name
  {beb4a167-32fd-478e-b535-51c49bad2542}; !- Thermal Zone Name

OS:Surface,
  {e1efdaff-23e6-4a52-83a3-f226927e8c0e}, !- Handle
  Surface 1,                              !- Name
  Floor,                                  !- Surface Type
  {cab713de-fab8-4651-b71a-4ae08b0c126e}, !- Construction Name
  {623b991d-de59-443f-a7c3-bf24368e6b41}, !- Space Name
  GroundFCfactorMethod,                   !- Outside Boundary Condition
  ,                                       !- Outside Boundary Condition Object
  NoSun,                                  !- Sun Exposure
  NoWind,                                 !- Wind Exposure
  ,                                       !- View Factor to Ground
  ,                                       !- Number of Vertices
  -3.5527136788005e-15, 4.9737991503207e-14, 0, !- X,Y,Z Vertex 1 {m}
  -3.5527136788005e-15, 4.572, 0,         !- X,Y,Z Vertex 2 {m}
  4.572, 4.572, 0,                        !- X,Y,Z Vertex 3 {m}
  4.572, 4.9737991503207e-14, 0;          !- X,Y,Z Vertex 4 {m}

OS:Surface,
  {489333a2-a0d4-49c8-a173-d8bb1b25a9e2}, !- Handle
  Surface 2,                              !- Name
  Wall,                                   !- Surface Type
  ,                                       !- Construction Name
  {623b991d-de59-443f-a7c3-bf24368e6b41}, !- Space Name
  Outdoors,                               !- Outside Boundary Condition
  ,                                       !- Outside Boundary Condition Object
  SunExposed,                             !- Sun Exposure
  WindExposed,                            !- Wind Exposure
  ,                                       !- View Factor to Ground
  ,                                       !- Number of Vertices
  -3.5527136788005e-15, 4.572, 8.5344,    !- X,Y,Z Vertex 1 {m}
  -3.5527136788005e-15, 4.572, 0,         !- X,Y,Z Vertex 2 {m}
  -3.5527136788005e-15, 4.9737991503207e-14, 0, !- X,Y,Z Vertex 3 {m}
  -3.5527136788005e-15, 4.9737991503207e-14, 8.5344; !- X,Y,Z Vertex 4 {m}

OS:Surface,
  {8a4be307-53cf-4089-bceb-7715f96eb6cd}, !- Handle
  Surface 3,                              !- Name
  Wall,                                   !- Surface Type
  ,                                       !- Construction Name
  {623b991d-de59-443f-a7c3-bf24368e6b41}, !- Space Name
  Surface,                                !- Outside Boundary Condition
  {cfbe1518-6dc8-42c8-ad6b-ddf35dfd3d14}, !- Outside Boundary Condition Object
  NoSun,                                  !- Sun Exposure
  NoWind,                                 !- Wind Exposure
  ,                                       !- View Factor to Ground
  ,                                       !- Number of Vertices
  4.572, 4.572, 8.5344,                   !- X,Y,Z Vertex 1 {m}
  4.572, 4.572, 0,                        !- X,Y,Z Vertex 2 {m}
  -3.5527136788005e-15, 4.572, 0,         !- X,Y,Z Vertex 3 {m}
  -3.5527136788005e-15, 4.572, 8.5344;    !- X,Y,Z Vertex 4 {m}

OS:Surface,
  {97e716f6-d3a7-4e87-b390-78b665c13085}, !- Handle
  Surface 4,                              !- Name
  Wall,                                   !- Surface Type
  ,                                       !- Construction Name
  {623b991d-de59-443f-a7c3-bf24368e6b41}, !- Space Name
  Surface,                                !- Outside Boundary Condition
  {858f9d32-feb8-47a1-ba46-f8e99e90ec32}, !- Outside Boundary Condition Object
  NoSun,                                  !- Sun Exposure
  NoWind,                                 !- Wind Exposure
  ,                                       !- View Factor to Ground
  ,                                       !- Number of Vertices
  4.572, 4.9737991503207e-14, 8.5344,     !- X,Y,Z Vertex 1 {m}
  4.572, 4.9737991503207e-14, 0,          !- X,Y,Z Vertex 2 {m}
  4.572, 4.572, 0,                        !- X,Y,Z Vertex 3 {m}
  4.572, 4.572, 8.5344;                   !- X,Y,Z Vertex 4 {m}

OS:Surface,
  {57515d1a-e495-42b3-999f-ec1e02abce95}, !- Handle
  Surface 5,                              !- Name
  Wall,                                   !- Surface Type
  ,                                       !- Construction Name
  {623b991d-de59-443f-a7c3-bf24368e6b41}, !- Space Name
  Outdoors,                               !- Outside Boundary Condition
  ,                                       !- Outside Boundary Condition Object
  SunExposed,                             !- Sun Exposure
  WindExposed,                            !- Wind Exposure
  ,                                       !- View Factor to Ground
  ,                                       !- Number of Vertices
  -3.5527136788005e-15, 4.9737991503207e-14, 8.5344, !- X,Y,Z Vertex 1 {m}
  -3.5527136788005e-15, 4.9737991503207e-14, 0, !- X,Y,Z Vertex 2 {m}
  4.572, 4.9737991503207e-14, 0,          !- X,Y,Z Vertex 3 {m}
  4.572, 4.9737991503207e-14, 8.5344;     !- X,Y,Z Vertex 4 {m}

OS:Surface,
  {2050b9e4-9c2e-4430-ad1c-9345a1ffc449}, !- Handle
  Surface 6,                              !- Name
  RoofCeiling,                            !- Surface Type
  ,                                       !- Construction Name
  {623b991d-de59-443f-a7c3-bf24368e6b41}, !- Space Name
  Outdoors,                               !- Outside Boundary Condition
  ,                                       !- Outside Boundary Condition Object
  SunExposed,                             !- Sun Exposure
  WindExposed,                            !- Wind Exposure
  ,                                       !- View Factor to Ground
  ,                                       !- Number of Vertices
  4.572, 4.9737991503207e-14, 8.5344,     !- X,Y,Z Vertex 1 {m}
  4.572, 4.572, 8.5344,                   !- X,Y,Z Vertex 2 {m}
  -3.5527136788005e-15, 4.572, 8.5344,    !- X,Y,Z Vertex 3 {m}
  -3.5527136788005e-15, 4.9737991503207e-14, 8.5344; !- X,Y,Z Vertex 4 {m}

OS:ThermalZone,
  {beb4a167-32fd-478e-b535-51c49bad2542}, !- Handle
  Zone Warehouse Bulk A end_a - Story Ground, !- Name
  1,                                      !- Multiplier
  ,                                       !- Ceiling Height {m}
  ,                                       !- Volume {m3}
  ,                                       !- Floor Area {m2}
  ,                                       !- Zone Inside Convection Algorithm
  ,                                       !- Zone Outside Convection Algorithm
  ,                                       !- Zone Conditioning Equipment List Name
  {d1669109-974a-4a52-aedd-4e5f28128d33}, !- Zone Air Inlet Port List
  {c3e1706e-0df4-46c7-b3ea-cc2ad573957c}, !- Zone Air Exhaust Port List
  {b739d607-d8b7-4ead-b084-e3933f19796f}, !- Zone Air Node Name
  {2e6e79fb-d2e1-4ad8-9331-14449e6a5996}, !- Zone Return Air Port List
  ,                                       !- Primary Daylighting Control Name
  ,                                       !- Fraction of Zone Controlled by Primary Daylighting Control
  ,                                       !- Secondary Daylighting Control Name
  ,                                       !- Fraction of Zone Controlled by Secondary Daylighting Control
  ,                                       !- Illuminance Map Name
  ,                                       !- Group Rendering Name
  {a93ce933-7e8a-4aee-8b1c-48e9aeee6fc1}, !- Thermostat Name
  No;                                     !- Use Ideal Air Loads

OS:Node,
  {acc7509e-73e0-4339-ae91-fe9a158195e4}, !- Handle
  Zone Warehouse Bulk A end_a - Story Ground Zone Air Node, !- Name
  {b739d607-d8b7-4ead-b084-e3933f19796f}, !- Inlet Port
  ;                                       !- Outlet Port

OS:Connection,
  {b739d607-d8b7-4ead-b084-e3933f19796f}, !- Handle
  {beb4a167-32fd-478e-b535-51c49bad2542}, !- Source Object
  11,                                     !- Outlet Port
  {acc7509e-73e0-4339-ae91-fe9a158195e4}, !- Target Object
  2;                                      !- Inlet Port

OS:PortList,
  {d1669109-974a-4a52-aedd-4e5f28128d33}, !- Handle
  {beb4a167-32fd-478e-b535-51c49bad2542}; !- HVAC Component

OS:PortList,
  {c3e1706e-0df4-46c7-b3ea-cc2ad573957c}, !- Handle
  {beb4a167-32fd-478e-b535-51c49bad2542}; !- HVAC Component

OS:PortList,
  {2e6e79fb-d2e1-4ad8-9331-14449e6a5996}, !- Handle
  {beb4a167-32fd-478e-b535-51c49bad2542}; !- HVAC Component

OS:Sizing:Zone,
  {4cbe3095-3e51-4f04-b7e2-44ed274eb690}, !- Handle
  {beb4a167-32fd-478e-b535-51c49bad2542}, !- Zone or ZoneList Name
  SupplyAirTemperature,                   !- Zone Cooling Design Supply Air Temperature Input Method
  14,                                     !- Zone Cooling Design Supply Air Temperature {C}
  11.11,                                  !- Zone Cooling Design Supply Air Temperature Difference {deltaC}
  SupplyAirTemperature,                   !- Zone Heating Design Supply Air Temperature Input Method
  40,                                     !- Zone Heating Design Supply Air Temperature {C}
  11.11,                                  !- Zone Heating Design Supply Air Temperature Difference {deltaC}
  0.0085,                                 !- Zone Cooling Design Supply Air Humidity Ratio {kg-H2O/kg-air}
  0.008,                                  !- Zone Heating Design Supply Air Humidity Ratio {kg-H2O/kg-air}
  ,                                       !- Zone Heating Sizing Factor
  ,                                       !- Zone Cooling Sizing Factor
  DesignDay,                              !- Cooling Design Air Flow Method
  ,                                       !- Cooling Design Air Flow Rate {m3/s}
  ,                                       !- Cooling Minimum Air Flow per Zone Floor Area {m3/s-m2}
  ,                                       !- Cooling Minimum Air Flow {m3/s}
  ,                                       !- Cooling Minimum Air Flow Fraction
  DesignDay,                              !- Heating Design Air Flow Method
  ,                                       !- Heating Design Air Flow Rate {m3/s}
  ,                                       !- Heating Maximum Air Flow per Zone Floor Area {m3/s-m2}
  ,                                       !- Heating Maximum Air Flow {m3/s}
  ,                                       !- Heating Maximum Air Flow Fraction
  No,                                     !- Account for Dedicated Outdoor Air System
  NeutralSupplyAir,                       !- Dedicated Outdoor Air System Control Strategy
  autosize,                               !- Dedicated Outdoor Air Low Setpoint Temperature for Design {C}
  autosize,                               !- Dedicated Outdoor Air High Setpoint Temperature for Design {C}
  Sensible Load Only No Latent Load,      !- Zone Load Sizing Method
  HumidityRatioDifference,                !- Zone Latent Cooling Design Supply Air Humidity Ratio Input Method
  ,                                       !- Zone Dehumidification Design Supply Air Humidity Ratio {kgWater/kgDryAir}
  0.005,                                  !- Zone Cooling Design Supply Air Humidity Ratio Difference {kgWater/kgDryAir}
  HumidityRatioDifference,                !- Zone Latent Heating Design Supply Air Humidity Ratio Input Method
  ,                                       !- Zone Humidification Design Supply Air Humidity Ratio {kgWater/kgDryAir}
  0.005;                                  !- Zone Humidification Design Supply Air Humidity Ratio Difference {kgWater/kgDryAir}

OS:ZoneHVAC:EquipmentList,
  {a92d4f92-f4d6-4058-a35a-5b27ec93505e}, !- Handle
  Zone Warehouse Bulk A end_a - Story Ground Zone HVAC Equipment List, !- Name
  {beb4a167-32fd-478e-b535-51c49bad2542}, !- Thermal Zone
  ,                                       !- Load Distribution Scheme
  {89cfc828-10fe-462d-a455-b45a5bf964cf}, !- Zone Equipment 1
  1,                                      !- Zone Equipment Cooling Sequence 1
  1,                                      !- Zone Equipment Heating or No-Load Sequence 1
  ,                                       !- Zone Equipment Sequential Cooling Fraction Schedule Name 1
  ;                                       !- Zone Equipment Sequential Heating Fraction Schedule Name 1

OS:Space,
  {b10d48b0-6f37-4d78-a660-b1f9e36e0683}, !- Handle
  Warehouse Bulk B end_a - Story Ground,  !- Name
  {75f6924d-b3a0-4a5a-b26e-8bc327f89002}, !- Space Type Name
  ,                                       !- Default Construction Set Name
  ,                                       !- Default Schedule Set Name
  -0,                                     !- Direction of Relative North {deg}
  -27.8041259815877,                      !- X Origin {m}
  -9.33006299079385,                      !- Y Origin {m}
  0,                                      !- Z Origin {m}
  {41a55ba3-c34f-4554-be32-bfbc6d0835e9}, !- Building Story Name
  {265b3508-80e2-4a9e-9369-d65752c8a1de}; !- Thermal Zone Name

OS:Surface,
  {6b40a8a8-3301-482e-bda9-0349c1b3b2fa}, !- Handle
  Surface 7,                              !- Name
  Floor,                                  !- Surface Type
  {dd566dc7-993f-4a57-9e0a-a83fb35ce01c}, !- Construction Name
  {b10d48b0-6f37-4d78-a660-b1f9e36e0683}, !- Space Name
  GroundFCfactorMethod,                   !- Outside Boundary Condition
  ,                                       !- Outside Boundary Condition Object
  NoSun,                                  !- Sun Exposure
  NoWind,                                 !- Wind Exposure
  ,                                       !- View Factor to Ground
  ,                                       !- Number of Vertices
  -3.5527136788005e-15, -1.77635683940025e-15, 0, !- X,Y,Z Vertex 1 {m}
  -3.5527136788005e-15, 18.6601259815877, 0, !- X,Y,Z Vertex 2 {m}
  4.572, 18.6601259815877, 0,             !- X,Y,Z Vertex 3 {m}
  4.572, -1.77635683940025e-15, 0;        !- X,Y,Z Vertex 4 {m}

OS:Surface,
  {7cafcb9f-4c3b-42d5-9cd3-412b478bf4b7}, !- Handle
  Surface 8,                              !- Name
  Wall,                                   !- Surface Type
  ,                                       !- Construction Name
  {b10d48b0-6f37-4d78-a660-b1f9e36e0683}, !- Space Name
  Outdoors,                               !- Outside Boundary Condition
  ,                                       !- Outside Boundary Condition Object
  SunExposed,                             !- Sun Exposure
  WindExposed,                            !- Wind Exposure
  ,                                       !- View Factor to Ground
  ,                                       !- Number of Vertices
  -3.5527136788005e-15, 18.6601259815877, 8.5344, !- X,Y,Z Vertex 1 {m}
  -3.5527136788005e-15, 18.6601259815877, 0, !- X,Y,Z Vertex 2 {m}
  -3.5527136788005e-15, -1.77635683940025e-15, 0, !- X,Y,Z Vertex 3 {m}
  -3.5527136788005e-15, -1.77635683940025e-15, 8.5344; !- X,Y,Z Vertex 4 {m}

OS:Surface,
  {a22d5eb0-e1e4-4c43-a67a-134b0e267e77}, !- Handle
  Surface 9,                              !- Name
  Wall,                                   !- Surface Type
  ,                                       !- Construction Name
  {b10d48b0-6f37-4d78-a660-b1f9e36e0683}, !- Space Name
  Surface,                                !- Outside Boundary Condition
  {69a501db-8b87-43e0-9c0f-ddac94df3fee}, !- Outside Boundary Condition Object
  NoSun,                                  !- Sun Exposure
  NoWind,                                 !- Wind Exposure
  ,                                       !- View Factor to Ground
  ,                                       !- Number of Vertices
  4.572, 18.6601259815877, 8.5344,        !- X,Y,Z Vertex 1 {m}
  4.572, 18.6601259815877, 0,             !- X,Y,Z Vertex 2 {m}
  -3.5527136788005e-15, 18.6601259815877, 0, !- X,Y,Z Vertex 3 {m}
  -3.5527136788005e-15, 18.6601259815877, 8.5344; !- X,Y,Z Vertex 4 {m}

OS:Surface,
  {8aaa60f4-1a51-4a0c-bb7f-0cb4100638aa}, !- Handle
  Surface 10,                             !- Name
  Wall,                                   !- Surface Type
  ,                                       !- Construction Name
  {b10d48b0-6f37-4d78-a660-b1f9e36e0683}, !- Space Name
  Surface,                                !- Outside Boundary Condition
  {a6e1c9f2-b5a2-482d-92d9-90c1aeb0ebeb}, !- Outside Boundary Condition Object
  NoSun,                                  !- Sun Exposure
  NoWind,                                 !- Wind Exposure
  ,                                       !- View Factor to Ground
  ,                                       !- Number of Vertices
  4.572, -1.77635683940025e-15, 8.5344,   !- X,Y,Z Vertex 1 {m}
  4.572, -1.77635683940025e-15, 0,        !- X,Y,Z Vertex 2 {m}
  4.572, 18.6601259815877, 0,             !- X,Y,Z Vertex 3 {m}
  4.572, 18.6601259815877, 8.5344;        !- X,Y,Z Vertex 4 {m}

OS:Surface,