
OS:Version,
  {31fe210a-8357-4d52-813d-20d56024ae15}, !- Handle
  3.6.1;                                  !- Version Identifier

OS:Facility,
  {79be19cd-690c-4410-96dd-fee9c13ac34d}; !- Handle

OS:Site,
  {e8e6adb1-2c34-43c7-a8b3-e7e9116e8364}, !- Handle
  Chicago Ohare Intl Ap,                  !- Name
  41.98,                                  !- Latitude {deg}
  -87.92,                                 !- Longitude {deg}
  -6,                                     !- Time Zone {hr}
  201,                                    !- Elevation {m}
  City;                                   !- Terrain

OS:SimulationControl,
  {e2ebea58-241f-4bb5-92ee-8d7bf5748992}, !- Handle
  ,                                       !- Do Zone Sizing Calculation
  ,                                       !- Do System Sizing Calculation
  ,                                       !- Do Plant Sizing Calculation
  No,                                     !- Run Simulation for Sizing Periods
  Yes,                                    !- Run Simulation for Weather File Run Periods
  ,                                       !- Loads Convergence Tolerance Value {W}
  ,                                       !- Temperature Convergence Tolerance Value {deltaC}
  ,                                       !- Solar Distribution
  ,                                       !- Maximum Number of Warmup Days
  ,                                       !- Minimum Number of Warmup Days
  No,                                     !- Do HVAC Sizing Simulation for Sizing Periods
  1;                                      !- Maximum Number of HVAC Sizing Simulation Passes

OS:Sizing:Parameters,
  {eafa39d0-8a04-41aa-b409-3ca259ecee2a}, !- Handle
  1.25,                                   !- Heating Sizing Factor
  1.15;                                   !- Cooling Sizing Factor

OS:Timestep,
  {c806ede6-1b4d-4952-a8d6-ebcc89096d0e}, !- Handle
  4;                                      !- Number of Timesteps per Hour

OS:ShadowCalculation,
  {cec5e47a-f9f6-4e2a-a636-a926a0b7bd75}, !- Handle
  PolygonClipping,                        !- Shading Calculation Method
  ,                                       !- Shading Calculation Update Frequency Method
  20,                                     !- Shading Calculation Update Frequency
  15000,                                  !- Maximum Figures in Shadow Overlap Calculations
  ,                                       !- Polygon Clipping Algorithm
  512,                                    !- Pixel Counting Resolution
  ,                                       !- Sky Diffuse Modeling Algorithm
  No,                                     !- Output External Shading Calculation Results
  No,                                     !- Disable Self-Shading Within Shading Zone Groups
  No;                                     !- Disable Self-Shading From Shading Zone Groups to Other Zones

OS:HeatBalanceAlgorithm,
  {fa4e8dec-bb5b-4574-b9a4-9516ab6dd4df}, !- Handle
  ConductionTransferFunction,             !- Algorithm
  200;                                    !- Surface Temperature Upper Limit {C}

OS:RunPeriod,
  {278d38b1-89b3-46cd-868a-01dc1090341f}, !- Handle
  Run Period 1,                           !- Name
  1,                                      !- Begin Month
  1,                                      !- Begin Day of Month
  12,                                     !- End Month
  31,                                     !- End Day of Month
  ,                                       !- Use Weather File Holidays and Special Days
  ,                                       !- Use Weather File Daylight Saving Period
  ,                                       !- Apply Weekend Holiday Rule
  ,                                       !- Use Weather File Rain Indicators
  ,                                       !- Use Weather File Snow Indicators
  ;                                       !- Number of Times Runperiod to be Repeated

OS:LifeCycleCost:Parameters,
  {50991450-bf8f-40e1-9e3a-ce48a48994c3}, !- Handle
  ,                                       !- Analysis Type
  ,                                       !- Discounting Convention
  ,                                       !- Inflation Approach
  ,                                       !- Real Discount Rate
  ,                                       !- Nominal Discount Rate
  ,                                       !- Inflation
  ,                                       !- Base Date Month
  ,                                       !- Base Date Year
  ,                                       !- Service Date Month
  ,                                       !- Service Date Year
  ;                                       !- Length of Study Period in Years

OS:Site:WaterMainsTemperature,
  {07f417eb-f745-4d5f-ac4c-612d5d825207}, !- Handle
  Correlation,                            !- Calculation Method
  ,                                       !- Temperature Schedule Name
  16.4916666666667,                       !- Annual Average Outdoor Air Temperature {C}
  24.14;                                  !- Maximum Difference In Monthly Average Outdoor Air Temperatures {deltaC}

OS:ClimateZones,
  {0e18aa39-907e-4c27-8638-53f2394f2de1}, !- Handle
  ASHRAE,                                 !- Climate Zone Institution Name 1
  ANSI/ASHRAE Standard 169,               !- Climate Zone Document Name 1
  2006,                                   !- Climate Zone Document Year 1
  ASHRAE 169-2013-4A,                     !- Climate Zone Value 1
  CEC,                                    !- Climate Zone Institution Name 2
  California Climate Zone Descriptions,   !- Climate Zone Document Name 2
  1995,                                   !- Climate Zone Document Year 2
  ;                                       !- Climate Zone Value 2

OS:Building,
  {c300ba40-fee5-479b-9df4-0cdd43a35f83}, !- Handle
  ComStock DOE Ref 1980-2004|SmallOffice, !- Name
  ,                                       !- Building Sector Type
  270,                                    !- North Axis {deg}
  ,                                       !- Nominal Floor to Floor Height {m}
  ,                                       !- Space Type Name
  {8f558439-4897-4c1b-a812-c9f5450ca557}, !- Default Construction Set Name
  {aebab6b4-2cca-4041-b5bf-51022e34361e}, !- Default Schedule Set Name
  ,                                       !- Standards Number of Stories
  ,                                       !- Standards Number of Above Ground Stories
  ,                                       !- Standards Template
  Office;                                 !- Standards Building Type

OS:AdditionalProperties,
  {5f7e0e95-41e6-49ea-bc56-270b2de78471}, !- Handle
  {c300ba40-fee5-479b-9df4-0cdd43a35f83}, !- Object Name
  grid_region,                            !- Feature Name 1
  String,                                 !- Feature Data Type 1
  SRTVc,                                  !- Feature Value 1
  hvac_system_type,                       !- Feature Name 2
  String,                                 !- Feature Data Type 2
  PTAC with electric coil,                !- Feature Value 2
  wall_as_constructed_template,           !- Feature Name 3
  String,                                 !- Feature Data Type 3
  ComStock DOE Ref 1980-2004,             !- Feature Value 3
  wall_template,                          !- Feature Name 4
  String,                                 !- Feature Data Type 4
  ComStock DOE Ref 1980-2004,             !- Feature Value 4
  roof_as_constructed_template,           !- Feature Name 5
  String,                                 !- Feature Data Type 5
  ComStock DOE Ref 1980-2004,             !- Feature Value 5
  roof_template,                          !- Feature Name 6
  String,                                 !- Feature Data Type 6
  ComStock DOE Ref 1980-2004,             !- Feature Value 6
  exterior_lighting_as_constructed_template, !- Feature Name 7
  String,                                 !- Feature Data Type 7
  ComStock DOE Ref 1980-2004,             !- Feature Value 7
  exterior_lighting_template,             !- Feature Name 8
  String,                                 !- Feature Data Type 8
  ComStock 90.1-2004,                     !- Feature Value 8
  interior_equipment_as_constructed_template, !- Feature Name 9
  String,                                 !- Feature Data Type 9
  ComStock DOE Ref 1980-2004,             !- Feature Value 9
  interior_equipment_template,            !- Feature Name 10
  String,                                 !- Feature Data Type 10
  ComStock 90.1-2004,                     !- Feature Value 10
  service_water_heating_as_constructed_template, !- Feature Name 11
  String,                                 !- Feature Data Type 11
  ComStock DOE Ref 1980-2004,             !- Feature Value 11
  service_water_heating_template,         !- Feature Name 12
  String,                                 !- Feature Data Type 12
  ComStock 90.1-2010,                     !- Feature Value 12
  hvac_as_constructed_template,           !- Feature Name 13
  String,                                 !- Feature Data Type 13
  ComStock DOE Ref 1980-2004,             !- Feature Value 13
  hvac_template,                          !- Feature Name 14
  String,                                 !- Feature Data Type 14
  ComStock 90.1-2010;                     !- Feature Value 14

OS:SpaceType,
  {6e206a68-e153-4c77-b349-994137cdd03b}, !- Handle
  Office WholeBuilding - Sm Office - ComStock DOE Ref 1980-2004, !- Name
  ,                                       !- Default Construction Set Name
  {ac644446-e095-487a-a75d-cdacdecf5042}, !- Default Schedule Set Name
  {57c4d075-4668-414e-8419-f9956423def3}, !- Group Rendering Name
  {40a8d93e-523f-4f74-9fe1-3db4b5182b49}, !- Design Specification Outdoor Air Object Name
  ,                                       !- Standards Template
  Office,                                 !- Standards Building Type
  WholeBuilding - Sm Office;              !- Standards Space Type

OS:Rendering:Color,
  {57c4d075-4668-414e-8419-f9956423def3}, !- Handle
  Office WholeBuilding - Sm Office,       !- Name
  120,                                    !- Rendering Red Value
  230,                                    !- Rendering Green Value
  199;                                    !- Rendering Blue Value

OS:BuildingStory,
  {e74156d9-9dac-48e3-81d1-a810b1d4a223}, !- Handle
  Story Ground,                           !- Name
  0,                                      !- Nominal Z Coordinate {m}
  3.048,                                  !- Nominal Floor to Floor Height {m}
  ,                                       !- Default Construction Set Name
  ,                                       !- Default Schedule Set Name
  ;                                       !- Group Rendering Name

OS:Space,
  {79e94823-8a8a-4698-8b02-c73c6fab0c45}, !- Handle
  Office WholeBuilding - Sm Office A end_a - Story Ground, !- Name
  {6e206a68-e153-4c77-b349-994137cdd03b}, !- Space Type Name
  ,                                       !- Default Construction Set Name
  ,                                       !- Default Schedule Set Name
  -0,                                     !- Direction of Relative North {deg}
  -5.9024266196201,                       !- X Origin {m}
  -5.9024266196201,                       !- Y Origin {m}
  0,                                      !- Z Origin {m}
  {e74156d9-9dac-48e3-81d1-a810b1d4a223}, !- Building Story Name
  {292af630-d79a-4b13-9583-673a0dc8012b}; !- Thermal Zone Name

OS:Surface,
  {1867072d-0bde-4b7f-9e2c-bbb75a2a9df6}, !- Handle
  Surface 1,                              !- Name
  Floor,                                  !- Surface Type
  {016a21e6-5faa-4e64-9d07-7cbfba9cca84}, !- Construction Name
  {79e94823-8a8a-4698-8b02-c73c6fab0c45}, !- Space Name
  GroundFCfactorMethod,                   !- Outside Boundary Condition
  ,                                       !- Outside Boundary Condition Object
  NoSun,                                  !- Sun Exposure
  NoWind,                                 !- Wind Exposure
  ,                                       !- View Factor to Ground
  ,                                       !- Number of Vertices
  3.5527136788005e-15, 3.5527136788005e-15, 0, !- X,Y,Z Vertex 1 {m}
  3.5527136788005e-15, 4.572, 0,          !- X,Y,Z Vertex 2 {m}
  4.572, 4.572, 0,                        !- X,Y,Z Vertex 3 {m}
  4.572, 3.5527136788005e-15, 0;          !- X,Y,Z Vertex 4 {m}

OS:Surface,
  {0c11f1f5-d1a2-43f2-a5e7-59229e96e9bc}, !- Handle
  Surface 2,                              !- Name
  Wall,                                   !- Surface Type
  ,                                       !- Construction Name
  {79e94823-8a8a-4698-8b02-c73c6fab0c45}, !- Space Name
  Outdoors,                               !- Outside Boundary Condition
  ,                                       !- Outside Boundary Condition Object
  SunExposed,                             !- Sun Exposure
  WindExposed,                            !- Wind Exposure
  ,                                       !- View Factor to Ground
  ,                                       !- Number of Vertices
  3.5527136788005e-15, 4.572, 3.048,      !- X,Y,Z Vertex 1 {m}
  3.5527136788005e-15, 4.572, 0,          !- X,Y,Z Vertex 2 {m}
  3.5527136788005e-15, 3.5527136788005e-15, 0, !- X,Y,Z Vertex 3 {m}
  3.5527136788005e-15, 3.5527136788005e-15, 3.048; !- X,Y,Z Vertex 4 {m}

OS:Surface,
  {829c8414-84ac-4478-9d04-2fed4d298173}, !- Handle
  Surface 3,                              !- Name
  Wall,                                   !- Surface Type
  ,                                       !- Construction Name
  {79e94823-8a8a-4698-8b02-c73c6fab0c45}, !- Space Name
  Surface,                                !- Outside Boundary Condition
  {fdda5c32-a847-42fd-8763-496ee1c433dc}, !- Outside Boundary Condition Object
  NoSun,                                  !- Sun Exposure
  NoWind,                                 !- Wind Exposure
  ,                                       !- View Factor to Ground
  ,                                       !- Number of Vertices
  4.572, 4.572, 3.048,                    !- X,Y,Z Vertex 1 {m}
  4.572, 4.572, 0,                        !- X,Y,Z Vertex 2 {m}
  3.5527136788005e-15, 4.572, 0,          !- X,Y,Z Vertex 3 {m}
  3.5527136788005e-15, 4.572, 3.048;      !- X,Y,Z Vertex 4 {m}

OS:Surface,
  {04b3835e-8d7a-432d-bfba-dc656ce913a3}, !- Handle
  Surface 4,                              !- Name
  Wall,                                   !- Surface Type
  ,                                       !- Construction Name
  {79e94823-8a8a-4698-8b02-c73c6fab0c45}, !- Space Name
  Surface,                                !- Outside Boundary Condition
  {f22d15ed-60f3-4d3e-abf9-04b7137241c2}, !- Outside Boundary Condition Object
  NoSun,                                  !- Sun Exposure
  NoWind,                                 !- Wind Exposure
  ,                                       !- View Factor to Ground
  ,                                       !- Number of Vertices
  4.572, 3.5527136788005e-15, 3.048,      !- X,Y,Z Vertex 1 {m}
  4.572, 3.5527136788005e-15, 0,          !- X,Y,Z Vertex 2 {m}
  4.572, 4.572, 0,                        !- X,Y,Z Vertex 3 {m}
  4.572, 4.572, 3.048;                    !- X,Y,Z Vertex 4 {m}

OS:Surface,
  {ddb3013e-c843-4330-8b0f-e05bda8642b8}, !- Handle
  Surface 5,                              !- Name
  Wall,                                   !- Surface Type
  ,                                       !- Construction Name
  {79e94823-8a8a-4698-8b02-c73c6fab0c45}, !- Space Name
  Outdoors,                               !- Outside Boundary Condition
  ,                                       !- Outside Boundary Condition Object
  SunExposed,                             !- Sun Exposure
  WindExposed,                            !- Wind Exposure
  ,                                       !- View Factor to Ground
  ,                                       !- Number of Vertices
  3.5527136788005e-15, 3.5527136788005e-15, 3.048, !- X,Y,Z Vertex 1 {m}
  3.5527136788005e-15, 3.5527136788005e-15, 0, !- X,Y,Z Vertex 2 {m}
  4.572, 3.5527136788005e-15, 0,          !- X,Y,Z Vertex 3 {m}
  4.572, 3.5527136788005e-15, 3.048;      !- X,Y,Z Vertex 4 {m}

OS:Surface,
  {71f08c10-113f-4d1e-bead-d688121f5a7f}, !- Handle
  Surface 6,                              !- Name
  RoofCeiling,                            !- Surface Type
  {98e8c96e-df42-4496-a0e4-46a082bd8d13}, !- Construction Name
  {79e94823-8a8a-4698-8b02-c73c6fab0c45}, !- Space Name
  Adiabatic,                              !- Outside Boundary Condition
  ,                                       !- Outside Boundary Condition Object
  NoSun,                                  !- Sun Exposure
  NoWind,                                 !- Wind Exposure
  ,                                       !- View Factor to Ground
  ,                                       !- Number of Vertices
  4.572, 3.5527136788005e-15, 3.048,      !- X,Y,Z Vertex 1 {m}
  4.572, 4.572, 3.048,                    !- X,Y,Z Vertex 2 {m}
  3.5527136788005e-15, 4.572, 3.048,      !- X,Y,Z Vertex 3 {m}
  3.5527136788005e-15, 3.5527136788005e-15, 3.048; !- X,Y,Z Vertex 4 {m}

OS:ThermalZone,
  {292af630-d79a-4b13-9583-673a0dc8012b}, !- Handle
  Zone Office WholeBuilding - Sm Office A end_a - Story Ground, !- Name
  1,                                      !- Multiplier
  ,                                       !- Ceiling Height {m}
  ,                                       !- Volume {m3}
  ,                                       !- Floor Area {m2}
  ,                                       !- Zone Inside Convection Algorithm
  ,                                       !- Zone Outside Convection Algorithm
  ,                                       !- Zone Conditioning Equipment List Name
  {d5e57792-80b6-49b7-b003-d6c2a5326dcc}, !- Zone Air Inlet Port List
  {9f9c2dec-d452-40c8-81ce-31ab72b40d6e}, !- Zone Air Exhaust Port List
  {f98e09b3-dd3a-4038-a780-c6404ecdc3b7}, !- Zone Air Node Name
  {3307dbd7-e64c-4479-aa26-808b59298f63}, !- Zone Return Air Port List
  ,                                       !- Primary Daylighting Control Name
  ,                                       !- Fraction of Zone Controlled by Primary Daylighting Control
  ,                                       !- Secondary Daylighting Control Name
  ,                                       !- Fraction of Zone Controlled by Secondary Daylighting Control
  ,                                       !- Illuminance Map Name
  {6ac1f377-7d51-4655-8a5a-99fce7b29800}, !- Group Rendering Name
  {af4ceae2-1c85-4704-ae75-b9809d2c8a2b}, !- Thermostat Name
  No;                                     !- Use Ideal Air Loads

OS:Node,
  {652a18b0-f70c-43e8-b2e8-1a5aec3395db}, !- Handle
  Zone Office WholeBuilding - Sm Office A end_a - Story Ground Zone Air Node, !- Name
  {f98e09b3-dd3a-4038-a780-c6404ecdc3b7}, !- Inlet Port
  ;                                       !- Outlet Port

OS:Connection,
  {f98e09b3-dd3a-4038-a780-c6404ecdc3b7}, !- Handle
  {292af630-d79a-4b13-9583-673a0dc8012b}, !- Source Object
  11,                                     !- Outlet Port
  {652a18b0-f70c-43e8-b2e8-1a5aec3395db}, !- Target Object
  2;                                      !- Inlet Port

OS:PortList,
  {d5e57792-80b6-49b7-b003-d6c2a5326dcc}, !- Handle
  {292af630-d79a-4b13-9583-673a0dc8012b}, !- HVAC Component
  {e116e697-5276-4daf-817d-5bb609bfd158}; !- Port 1

OS:PortList,
  {9f9c2dec-d452-40c8-81ce-31ab72b40d6e}, !- Handle
  {292af630-d79a-4b13-9583-673a0dc8012b}, !- HVAC Component
  {5f659457-735d-4674-a24d-40c3a332c585}; !- Port 1

OS:PortList,
  {3307dbd7-e64c-4479-aa26-808b59298f63}, !- Handle
  {292af630-d79a-4b13-9583-673a0dc8012b}; !- HVAC Component

OS:Sizing:Zone,
  {f839e373-fd72-46bb-a1db-513183056fd1}, !- Handle
  {292af630-d79a-4b13-9583-673a0dc8012b}, !- Zone or ZoneList Name
  SupplyAirTemperature,                   !- Zone Cooling Design Supply Air Temperature Input Method
  13.8888888888889,                       !- Zone Cooling Design Supply Air Temperature {C}
  11.11,                                  !- Zone Cooling Design Supply Air Temperature Difference {deltaC}
  SupplyAirTemperature,                   !- Zone Heating Design Supply Air Temperature Input Method
  50.0000000000001,                       !- Zone Heating Design Supply Air Temperature {C}
  11.11,                                  !- Zone Heating Design Supply Air Temperature Difference {deltaC}
  0.008,                                  !- Zone Cooling Design Supply Air Humidity Ratio {kg-H2O/kg-air}
  0.008,                                  !- Zone Heating Design Supply Air Humidity Ratio {kg-H2O/kg-air}
  ,                                       !- Zone Heating Sizing Factor
  ,                                       !- Zone Cooling Sizing Factor
  DesignDay,                              !- Cooling Design Air Flow Method
  ,                                       !- Cooling Design Air Flow Rate {m3/s}
  ,                                       !- Cooling Minimum Air Flow per Zone Floor Area {m3/s-m2}
  ,                                       !- Cooling Minimum Air Flow {m3/s}
  ,                                       !- Cooling Minimum Air Flow Fraction
  DesignDay,                              !- Heating Design Air Flow Method
  ,                                       !- Heating Design Air Flow Rate {m3/s}
  ,                                       !- Heating Maximum Air Flow per Zone Floor Area {m3/s-m2}
  ,                                       !- Heating Maximum Air Flow {m3/s}
  ,                                       !- Heating Maximum Air Flow Fraction
  No,                                     !- Account for Dedicated Outdoor Air System
  NeutralSupplyAir,                       !- Dedicated Outdoor Air System Control Strategy
  autosize,                               !- Dedicated Outdoor Air Low Setpoint Temperature for Design {C}
  autosize,                               !- Dedicated Outdoor Air High Setpoint Temperature for Design {C}
  Sensible Load Only No Latent Load,      !- Zone Load Sizing Method
  HumidityRatioDifference,                !- Zone Latent Cooling Design Supply Air Humidity Ratio Input Method
  ,                                       !- Zone Dehumidification Design Supply Air Humidity Ratio {kgWater/kgDryAir}
  0.005,                                  !- Zone Cooling Design Supply Air Humidity Ratio Difference {kgWater/kgDryAir}
  HumidityRatioDifference,                !- Zone Latent Heating Design Supply Air Humidity Ratio Input Method
  ,                                       !- Zone Humidification Design Supply Air Humidity Ratio {kgWater/kgDryAir}
  0.005;                                  !- Zone Humidification Design Supply Air Humidity Ratio Difference {kgWater/kgDryAir}

OS:ZoneHVAC:EquipmentList,
  {55079583-4b6e-46fd-9596-af9877748b0d}, !- Handle
  Zone Office WholeBuilding - Sm Office A end_a - Story Ground Zone HVAC Equipment List, !- Name
  {292af630-d79a-4b13-9583-673a0dc8012b}, !- Thermal Zone
  ,                                       !- Load Distribution Scheme
  {cc61bec0-b67d-4d37-b53c-768df70a5d4e}, !- Zone Equipment 1
  1,                                      !- Zone Equipment Cooling Sequence 1
  1,                                      !- Zone Equipment Heating or No-Load Sequence 1
  ,                                       !- Zone Equipment Sequential Cooling Fraction Schedule Name 1
  ;                                       !- Zone Equipment Sequential Heating Fraction Schedule Name 1

OS:Space,
  {45de156b-206e-4db3-954f-84e839073937}, !- Handle
  Office WholeBuilding - Sm Office B end_a - Story Ground, !- Name
  {6e206a68-e153-4c77-b349-994137cdd03b}, !- Space Type Name
  ,                                       !- Default Construction Set Name
  ,                                       !- Default Schedule Set Name
  -0,                                     !- Direction of Relative North {deg}
  -5.9024266196201,                       !- X Origin {m}
  -1.3304266196201,                       !- Y Origin {m}
  0,                                      !- Z Origin {m}
  {e74156d9-9dac-48e3-81d1-a810b1d4a223}, !- Building Story Name
  {fcf80fbf-8cb8-401e-88cb-28b3f4fe766f}; !- Thermal Zone Name

OS:Surface,
  {badeebe1-6bab-458b-94cc-60ae31e4d348}, !- Handle
  Surface 7,                              !- Name
  Floor,                                  !- Surface Type
  {e7dc3eac-6a0e-42c9-9ce7-abf41f3dcb9f}, !- Construction Name
  {45de156b-206e-4db3-954f-84e839073937}, !- Space Name
  GroundFCfactorMethod,                   !- Outside Boundary Condition
  ,                                       !- Outside Boundary Condition Object
  NoSun,                                  !- Sun Exposure
  NoWind,                                 !- Wind Exposure
  ,                                       !- View Factor to Ground
  ,                                       !- Number of Vertices
  3.5527136788005e-15, 3.77475828372553e-15, 0, !- X,Y,Z Vertex 1 {m}
  3.5527136788005e-15, 2.6608532392402, 0, !- X,Y,Z Vertex 2 {m}
  4.572, 2.6608532392402, 0,              !- X,Y,Z Vertex 3 {m}
  4.572, 3.77475828372553e-15, 0;         !- X,Y,Z Vertex 4 {m}

OS:Surface,
  {285b17a6-3752-485c-a852-46f7da6b2936}, !- Handle
  Surface 8,                              !- Name
  Wall,                                   !- Surface Type
  ,                                       !- Construction Name
  {45de156b-206e-4db3-954f-84e839073937}, !- Space Name
  Outdoors,                               !- Outside Boundary Condition
  ,                                       !- Outside Boundary Condition Object
  SunExposed,                             !- Sun Exposure
  WindExposed,                            !- Wind Exposure
  ,                                       !- View Factor to Ground
  ,                                       !- Number of Vertices
  3.5527136788005e-15, 2.6608532392402, 3.048, !- X,Y,Z Vertex 1 {m}
  3.5527136788005e-15, 2.6608532392402, 0, !- X,Y,Z Vertex 2 {m}
  3.5527136788005e-15, 3.77475828372553e-15, 0, !- X,Y,Z Vertex 3 {m}
  3.5527136788005e-15, 3.77475828372553e-15, 3.048; !- X,Y,Z Vertex 4 {m}

OS:Surface,
  {4720885b-9615-4a25-8a3c-7a08dd4fd277}, !- Handle
  Surface 9,                              !- Name
  Wall,                                   !- Surface Type
  ,                                       !- Construction Name
  {45de156b-206e-4db3-954f-84e839073937}, !- Space Name
  Surface,                                !- Outside Boundary Condition
  {19cd69d5-f2dc-4623-a300-3cde4fc4b23d}, !- Outside Boundary Condition Object
  NoSun,                                  !- Sun Exposure
  NoWind,                                 !- Wind Exposure
  ,                                       !- View Factor to Ground
  ,                                       !- Number of Vertices
  4.572, 2.6608532392402, 3.048,          !- X,Y,Z Vertex 1 {m}
  4.572, 2.6608532392402, 0,              !- X,Y,Z Vertex 2 {m}
  3.5527136788005e-15, 2.6608532392402, 0, !- X,Y,Z Vertex 3 {m}
  3.5527136788005e-15, 2.6608532392402, 3.048; !- X,Y,Z Vertex 4 {m}

OS:Surface,
  {17283e6d-7e3f-4b3b-9f66-1b0f0798dde1}, !- Handle
  Surface 10,                             !- Name
  Wall,                                   !- Surface Type
  ,                                       !- Construction Name
  {45de156b-206e-4db3-954f-84e839073937}, !- Space Name
  Surface,                                !- Outside Boundary Condition
  {54b1ab26-9d24-4c96-8b0e-7fce9ff376e8}, !- Outside Boundary Condition Object
  NoSun,                                  !- Sun Exposure
  NoWind,                                 !- Wind Exposure
  ,                                       !- View Factor to Ground
  ,                                       !- Number of Vertices
  4.572, 3.77475828372553e-15, 3.048,     !- X,Y,Z Vertex 1 {m}
  4.572, 3.77475828372553e-15, 0,         !- X,Y,Z Vertex 2 {m}
  4.572, 2.6608532392402, 0,              !- X,Y,Z Vertex 3 {m}
  4.572, 2.6608532392402, 3.048;          !- X,Y,Z Vertex 4 {m}

OS:Surface,
  {fdda5c32-a847-42fd-8763-496ee1c433dc}, !- Handle
  Surface 11,                             !- Name
  Wall,                                   !- Surface Type
  ,                                       !- Construction Name
  {45de156b-206e-4db3-954f-84e839073937}, !- Space Name
  Surface,                                !- Outside Boundary Condition
  {829c8414-84ac-4478-9d04-2fed4d298173}, !- Outside Boundary Condition Object
  NoSun,                                  !- Sun Exposure
  NoWind,                                 !- Wind Exposure
  ,                                       !- View Factor to Ground
  ,                                       !- Number of Vertices
  3.5527136788005e-15, 3.77475828372553e-15, 3.048, !- X,Y,Z Vertex 1 {m}
  3.5527136788005e-15, 3.77475828372553e-15, 0, !- X,Y,Z Vertex 2 {m}
  4.572, 3.77475828372553e-15, 0,         !- X,Y,Z Vertex 3 {m}
  4.572, 3.77475828372553e-15, 3.048;     !- X,Y,Z Vertex 4 {m}

OS:Surface,
  {bcbb6458-a597-45a3-a814-9b4ac46958aa}, !- Handle
  Surface 12,                             !- Name
  RoofCeiling,                            !- Surface Type
  {98e8c96e-df42-4496-a0e4-46a082bd8d13}, !- Construction Name
  {45de156b-206e-4db3-954f-84e839073937}, !- Space Name
  Adiabatic,                              !- Outside Boundary Condition
  ,                                       !- Outside Boundary Condition Object
  NoSun,                                  !- Sun Exposure
  NoWind,                                 !- Wind Exposure
  ,                                       !- View Factor to Ground
  ,                                       !- Number of Vertices
  4.572, 3.77475828372553e-15, 3.048,     !- X,Y,Z Vertex 1 {m}