
OS:Version,
  {1fee5421-ad7c-4cde-973c-c13834db5241}, !- Handle
  2.7.1;                                  !- Version Identifier

OS:WeatherFile,
  {a7eee175-6868-4a41-8197-3b8384c6154d}, !- Handle
  CA_LOS-ANGELES-DOWNTOWN-,               !- City
  -,                                      !- State Province Region
  USA,                                    !- Country
  Custom-722874,                          !- Data Source
  722874,                                 !- WMO Number
  34.03,                                  !- Latitude {deg}
  -118.3,                                 !- Longitude {deg}
  -8,                                     !- Time Zone {hr}
  56,                                     !- Elevation {m}
  file:////weather/CA_LOS-ANGELES-DOWNTOWN-USC_722874S_12.epw, !- Url
  288AE598;                               !- Checksum

OS:RunPeriodControl:DaylightSavingTime,
  {43e023b2-526f-4ed3-bc10-d603aa637087}, !- Handle
  2nd Sunday in March,                    !- Start Date
  1st Sunday in November;                 !- End Date

OS:YearDescription,
  {97f4c527-9130-47c4-aa6f-2a82b72e5096}, !- Handle
  2015,                                   !- Calendar Year
  ,                                       !- Day of Week for Start Day
  ;                                       !- Is Leap Year

OS:Timestep,
  {5c6c18ca-af27-4e25-a2fb-c57010846be4}, !- Handle
  4;                                      !- Number of Timesteps per Hour

OS:RunPeriod,
  {9f089359-3125-439f-a7bb-4f58ffe39269}, !- Handle
  Run Period 1,                           !- Name
  1,                                      !- Begin Month
  1,                                      !- Begin Day of Month
  12,                                     !- End Month
  30,                                     !- End Day of Month
  ,                                       !- Use Weather File Holidays and Special Days
  ,                                       !- Use Weather File Daylight Saving Period
  ,                                       !- Apply Weekend Holiday Rule
  ,                                       !- Use Weather File Rain Indicators
  ,                                       !- Use Weather File Snow Indicators
  ;                                       !- Number of Times Runperiod to be Repeated

OS:Site,
  {cd30490a-266e-4ca4-8998-8b51a902792c}, !- Handle
  CA_LOS-ANGELES-DOWNTOWN-_-_USA,         !- Name
  34.03,                                  !- Latitude {deg}
  -118.3,                                 !- Longitude {deg}
  -8,                                     !- Time Zone {hr}
  56,                                     !- Elevation {m}
  City;                                   !- Terrain

OS:Site:WaterMainsTemperature,
  {3bc1a522-f26e-4896-bd6c-43440bd79b4f}, !- Handle
  Correlation,                            !- Calculation Method
  ,                                       !- Temperature Schedule Name
  17.9083333333333,                       !- Annual Average Outdoor Air Temperature {C}
  10.6;                                   !- Maximum Difference In Monthly Average Outdoor Air Temperatures {deltaC}

OS:SizingPeriod:DesignDay,
  {83ae4e0c-6ddc-4ce8-9b0e-3ae5580aa684}, !- Handle
  CA_LOS-ANGELES-DOWNTOWN- Ann Clg .4% Condns DB=>MWB 1, !- Name
  32.8,                                   !- Maximum Dry-Bulb Temperature {C}
  9.7,                                    !- Daily Dry-Bulb Temperature Range {deltaC}
  18.9,                                   !- Humidity Indicating Conditions at Maximum Dry-Bulb
  100654,                                 !- Barometric Pressure {Pa}
  1.5,                                    !- Wind Speed {m/s}
  0,                                      !- Wind Direction {deg}
  0,                                      !- Sky Clearness
  0,                                      !- Rain Indicator
  0,                                      !- Snow Indicator
  21,                                     !- Day of Month
  8,                                      !- Month
  SummerDesignDay,                        !- Day Type
  0,                                      !- Daylight Saving Time Indicator
  Wetbulb,                                !- Humidity Indicating Type
  ,                                       !- Humidity Indicating Day Schedule Name
  DefaultMultipliers,                     !- Dry-Bulb Temperature Range Modifier Type
  ,                                       !- Dry-Bulb Temperature Range Modifier Schedule Name
  ASHRAETau,                              !- Solar Model Indicator
  ,                                       !- Beam Solar Day Schedule Name
  ,                                       !- Diffuse Solar Day Schedule Name
  0.361,                                  !- ASHRAE Taub {dimensionless}
  2.436;                                  !- ASHRAE Taud {dimensionless}

OS:SizingPeriod:DesignDay,
  {01d91da3-a22e-47b4-ab50-c14310aa75fe}, !- Handle
  CA_LOS-ANGELES-DOWNTOWN- Ann Clg .4% Condns WB=>MDB 1, !- Name
  29.2,                                   !- Maximum Dry-Bulb Temperature {C}
  9.7,                                    !- Daily Dry-Bulb Temperature Range {deltaC}
  22,                                     !- Humidity Indicating Conditions at Maximum Dry-Bulb
  100654,                                 !- Barometric Pressure {Pa}
  1.5,                                    !- Wind Speed {m/s}
  0,                                      !- Wind Direction {deg}
  0,                                      !- Sky Clearness
  0,                                      !- Rain Indicator
  0,                                      !- Snow Indicator
  21,                                     !- Day of Month
  8,                                      !- Month
  SummerDesignDay,                        !- Day Type
  0,                                      !- Daylight Saving Time Indicator
  Wetbulb,                                !- Humidity Indicating Type
  ,                                       !- Humidity Indicating Day Schedule Name
  DefaultMultipliers,                     !- Dry-Bulb Temperature Range Modifier Type
  ,                                       !- Dry-Bulb Temperature Range Modifier Schedule Name
  ASHRAETau,                              !- Solar Model Indicator
  ,                                       !- Beam Solar Day Schedule Name
  ,                                       !- Diffuse Solar Day Schedule Name
  0.361,                                  !- ASHRAE Taub {dimensionless}
  2.436;                                  !- ASHRAE Taud {dimensionless}

OS:SizingPeriod:DesignDay,
  {0bec1db4-22dc-4a07-aca5-3c3d58782b94}, !- Handle
  CA_LOS-ANGELES-DOWNTOWN- Ann Htg 99.6% Condns DB 1, !- Name
  6.2,                                    !- Maximum Dry-Bulb Temperature {C}
  0,                                      !- Daily Dry-Bulb Temperature Range {deltaC}
  6.2,                                    !- Humidity Indicating Conditions at Maximum Dry-Bulb
  100654,                                 !- Barometric Pressure {Pa}
  0.2,                                    !- Wind Speed {m/s}
  0,                                      !- Wind Direction {deg}
  0,                                      !- Sky Clearness
  0,                                      !- Rain Indicator
  0,                                      !- Snow Indicator
  21,                                     !- Day of Month
  12,                                     !- Month
  WinterDesignDay,                        !- Day Type
  0,                                      !- Daylight Saving Time Indicator
  Wetbulb,                                !- Humidity Indicating Type
  ,                                       !- Humidity Indicating Day Schedule Name
  DefaultMultipliers,                     !- Dry-Bulb Temperature Range Modifier Type
  ,                                       !- Dry-Bulb Temperature Range Modifier Schedule Name
  ASHRAEClearSky;                         !- Solar Model Indicator

OS:ClimateZones,
  {8421c801-50bf-4009-b12e-13a4143e7c75}, !- Handle
  ,                                       !- Active Institution
  ,                                       !- Active Year
  CEC,                                    !- Climate Zone Institution Name 1
  California Climate Zone Descriptions,   !- Climate Zone Document Name 1
  1995,                                   !- Climate Zone Document Year 1
  8;                                      !- Climate Zone Value 1

OS:SpaceType,
  {723e369b-6ce6-4cdd-88f2-e1f64d187865}, !- Handle
  Asm Auditorium - DEER Pre-1975,         !- Name
  ,                                       !- Default Construction Set Name
  {7e489a28-bcd6-4a2a-9ae3-e60229b18c02}, !- Default Schedule Set Name
  ,                                       !- Group Rendering Name
  {0b28dcee-03bb-40e0-8c53-f5915d8dc5e5}, !- Design Specification Outdoor Air Object Name
  ,                                       !- Standards Template
  Asm,                                    !- Standards Building Type
  Auditorium;                             !- Standards Space Type

OS:SpaceType,
  {e6e3e2e5-0e2d-450f-bfb7-70bec33c283a}, !- Handle
  Asm OfficeGeneral - DEER Pre-1975,      !- Name
  ,                                       !- Default Construction Set Name
  {d6d819de-aaad-4a68-8962-585b44a99dc3}, !- Default Schedule Set Name
  ,                                       !- Group Rendering Name
  {4ab08465-d482-48c3-91f3-c72be7b3e153}, !- Design Specification Outdoor Air Object Name
  ,                                       !- Standards Template
  Asm,                                    !- Standards Building Type
  OfficeGeneral;                          !- Standards Space Type

OS:Building,
  {e5ee55df-2fea-4aeb-bd7a-8d399ca319f8}, !- Handle
  DEER Pre-1975|Asm,                      !- Name
  ,                                       !- Building Sector Type
  270,                                    !- North Axis {deg}
  ,                                       !- Nominal Floor to Floor Height {m}
  ,                                       !- Space Type Name
  {fff0d963-e094-4841-8cdf-46c1d39c1c4b}, !- Default Construction Set Name
  ,                                       !- Default Schedule Set Name
  ,                                       !- Standards Number of Stories
  ,                                       !- Standards Number of Above Ground Stories
  ,                                       !- Standards Template
  Asm;                                    !- Standards Building Type

OS:BuildingStory,
  {7673c7ee-c8f5-421c-b66c-4c39fe16b3a8}, !- Handle
  Story Ground,                           !- Name
  0,                                      !- Nominal Z Coordinate {m}
  2.4384,                                 !- Nominal Floor to Floor Height {m}
  ,                                       !- Default Construction Set Name
  ,                                       !- Default Schedule Set Name
  ;                                       !- Group Rendering Name

OS:Space,
  {501be76b-ce88-492c-836e-832a239ad26f}, !- Handle
  Asm Auditorium  - Story Ground,         !- Name
  {723e369b-6ce6-4cdd-88f2-e1f64d187865}, !- Space Type Name
  ,                                       !- Default Construction Set Name
  ,                                       !- Default Schedule Set Name
  -0,                                     !- Direction of Relative North {deg}
  -18.6651118400078,                      !- X Origin {m}
  -4.66627796000195,                      !- Y Origin {m}
  0,                                      !- Z Origin {m}
  {7673c7ee-c8f5-421c-b66c-4c39fe16b3a8}, !- Building Story Name
  {2321dd25-c3d4-4456-ade1-41230f17c79d}; !- Thermal Zone Name

OS:Surface,
  {d3255237-413d-4447-9ea1-739143b8d7ff}, !- Handle
  Surface 1,                              !- Name
  Floor,                                  !- Surface Type
  {024f0f13-f127-495c-aff1-82caa199f997}, !- Construction Name
  {501be76b-ce88-492c-836e-832a239ad26f}, !- Space Name
  Ground,                                 !- Outside Boundary Condition
  ,                                       !- Outside Boundary Condition Object
  NoSun,                                  !- Sun Exposure
  NoWind,                                 !- Wind Exposure
  ,                                       !- View Factor to Ground
  ,                                       !- Number of Vertices
  1.77635683940025e-14, 4.44089209850063e-15, 0, !- X,Y,Z Vertex 1 {m}
  1.77635683940025e-14, 9.33255592000391, 0, !- X,Y,Z Vertex 2 {m}
  19.8447469082963, 9.33255592000391, 0,  !- X,Y,Z Vertex 3 {m}
  19.8447469082963, 4.44089209850063e-15, 0; !- X,Y,Z Vertex 4 {m}

OS:Surface,
  {c1f84057-ad5b-463b-b3cb-03017fa3ba46}, !- Handle
  Surface 2,                              !- Name
  Wall,                                   !- Surface Type
  {bf469352-458d-40e8-9194-7a2eb8a74e8d}, !- Construction Name
  {501be76b-ce88-492c-836e-832a239ad26f}, !- Space Name
  Outdoors,                               !- Outside Boundary Condition
  ,                                       !- Outside Boundary Condition Object
  SunExposed,                             !- Sun Exposure
  WindExposed,                            !- Wind Exposure
  ,                                       !- View Factor to Ground
  ,                                       !- Number of Vertices
  1.77635683940025e-14, 9.33255592000391, 2.4384, !- X,Y,Z Vertex 1 {m}
  1.77635683940025e-14, 9.33255592000391, 0, !- X,Y,Z Vertex 2 {m}
  1.77635683940025e-14, 4.44089209850063e-15, 0, !- X,Y,Z Vertex 3 {m}
  1.77635683940025e-14, 4.44089209850063e-15, 2.4384; !- X,Y,Z Vertex 4 {m}

OS:Surface,
  {6c069136-ee65-4af5-bfbe-ad8890a02893}, !- Handle
  Surface 3,                              !- Name
  Wall,                                   !- Surface Type
  {bf469352-458d-40e8-9194-7a2eb8a74e8d}, !- Construction Name
  {501be76b-ce88-492c-836e-832a239ad26f}, !- Space Name
  Outdoors,                               !- Outside Boundary Condition
  ,                                       !- Outside Boundary Condition Object
  SunExposed,                             !- Sun Exposure
  WindExposed,                            !- Wind Exposure
  ,                                       !- View Factor to Ground
  ,                                       !- Number of Vertices
  19.8447469082963, 9.33255592000391, 2.4384, !- X,Y,Z Vertex 1 {m}
  19.8447469082963, 9.33255592000391, 0,  !- X,Y,Z Vertex 2 {m}
  1.77635683940025e-14, 9.33255592000391, 0, !- X,Y,Z Vertex 3 {m}
  1.77635683940025e-14, 9.33255592000391, 2.4384; !- X,Y,Z Vertex 4 {m}

OS:Surface,
  {955f4f74-d281-423a-84a8-5c9a46943fee}, !- Handle
  Surface 4,                              !- Name
  Wall,                                   !- Surface Type
  ,                                       !- Construction Name
  {501be76b-ce88-492c-836e-832a239ad26f}, !- Space Name
  Surface,                                !- Outside Boundary Condition
  {4c66d991-1b6c-4c6c-a7e6-d88644826c8f}, !- Outside Boundary Condition Object
  NoSun,                                  !- Sun Exposure
  NoWind,                                 !- Wind Exposure
  ,                                       !- View Factor to Ground
  ,                                       !- Number of Vertices
  19.8447469082963, 4.44089209850063e-15, 2.4384, !- X,Y,Z Vertex 1 {m}
  19.8447469082963, 4.44089209850063e-15, 0, !- X,Y,Z Vertex 2 {m}
  19.8447469082963, 9.33255592000391, 0,  !- X,Y,Z Vertex 3 {m}
  19.8447469082963, 9.33255592000391, 2.4384; !- X,Y,Z Vertex 4 {m}

OS:Surface,
  {49d9cc1a-0f0a-446a-b7ba-c17e0fce5f18}, !- Handle
  Surface 5,                              !- Name
  Wall,                                   !- Surface Type
  {bf469352-458d-40e8-9194-7a2eb8a74e8d}, !- Construction Name
  {501be76b-ce88-492c-836e-832a239ad26f}, !- Space Name
  Outdoors,                               !- Outside Boundary Condition
  ,                                       !- Outside Boundary Condition Object
  SunExposed,                             !- Sun Exposure
  WindExposed,                            !- Wind Exposure
  ,                                       !- View Factor to Ground
  ,                                       !- Number of Vertices
  1.77635683940025e-14, 4.44089209850063e-15, 2.4384, !- X,Y,Z Vertex 1 {m}
  1.77635683940025e-14, 4.44089209850063e-15, 0, !- X,Y,Z Vertex 2 {m}
  19.8447469082963, 4.44089209850063e-15, 0, !- X,Y,Z Vertex 3 {m}
  19.8447469082963, 4.44089209850063e-15, 2.4384; !- X,Y,Z Vertex 4 {m}

OS:Surface,
  {46f64501-6e6d-4258-ac91-78eee9b8d676}, !- Handle
  Surface 6,                              !- Name
  RoofCeiling,                            !- Surface Type
  ,                                       !- Construction Name
  {501be76b-ce88-492c-836e-832a239ad26f}, !- Space Name
  Surface,                                !- Outside Boundary Condition
  {0cf2dc03-95b2-4630-859f-471dc25b7b13}, !- Outside Boundary Condition Object
  NoSun,                                  !- Sun Exposure
  NoWind,                                 !- Wind Exposure
  ,                                       !- View Factor to Ground
  ,                                       !- Number of Vertices
  19.8447469082963, 5.32907051820075e-15, 2.4384, !- X,Y,Z Vertex 1 {m}
  19.8447469082963, 9.33255592000391, 2.4384, !- X,Y,Z Vertex 2 {m}
  1.77635683940025e-14, 9.33255592000391, 2.4384, !- X,Y,Z Vertex 3 {m}
  1.77635683940025e-14, 5.32907051820075e-15, 2.4384; !- X,Y,Z Vertex 4 {m}

OS:ThermalZone,
  {2321dd25-c3d4-4456-ade1-41230f17c79d}, !- Handle
  Zone Asm Auditorium  - Story Ground,    !- Name
  1,                                      !- Multiplier
  ,                                       !- Ceiling Height {m}
  ,                                       !- Volume {m3}
  ,                                       !- Floor Area {m2}
  ,                                       !- Zone Inside Convection Algorithm
  ,                                       !- Zone Outside Convection Algorithm
  ,                                       !- Zone Conditioning Equipment List Name
  {384bd1cd-ebd1-4010-b165-4a3f65838884}, !- Zone Air Inlet Port List
  {4a85cc25-4564-407c-a693-5a1c3ece9b6e}, !- Zone Air Exhaust Port List
  {e2573c70-68ad-4ecd-aca0-808cfe67e6dc}, !- Zone Air Node Name
  {da67e95a-f56c-4cec-b94d-635a46d85270}, !- Zone Return Air Port List
  ,                                       !- Primary Daylighting Control Name
  ,                                       !- Fraction of Zone Controlled by Primary Daylighting Control
  ,                                       !- Secondary Daylighting Control Name
  ,                                       !- Fraction of Zone Controlled by Secondary Daylighting Control
  ,                                       !- Illuminance Map Name
  ,                                       !- Group Rendering Name
  {9906c007-2faf-45a0-baf8-d0a3971f6f3c}, !- Thermostat Name
  No;                                     !- Use Ideal Air Loads

OS:Node,
  {d1d48a98-c1b9-40ce-ae3a-3c8ea253e5c6}, !- Handle
  Zone Asm Auditorium  - Story Ground Zone Air Node, !- Name
  {e2573c70-68ad-4ecd-aca0-808cfe67e6dc}, !- Inlet Port
  ;                                       !- Outlet Port

OS:Connection,
  {e2573c70-68ad-4ecd-aca0-808cfe67e6dc}, !- Handle
  {58564aba-3b85-4009-967c-3656f842fa29}, !- Name
  {2321dd25-c3d4-4456-ade1-41230f17c79d}, !- Source Object
  11,                                     !- Outlet Port
  {d1d48a98-c1b9-40ce-ae3a-3c8ea253e5c6}, !- Target Object
  2;                                      !- Inlet Port

OS:PortList,
  {384bd1cd-ebd1-4010-b165-4a3f65838884}, !- Handle
  {f61299b7-4566-4412-bdbc-80fc357af6b0}, !- Name
  {2321dd25-c3d4-4456-ade1-41230f17c79d}, !- HVAC Component
  {34b53d89-21bd-448c-983a-37e218bffb96}; !- Port 1

OS:PortList,
  {4a85cc25-4564-407c-a693-5a1c3ece9b6e}, !- Handle
  {c923fb54-2595-4afb-99bb-4019462e8cb2}, !- Name
  {2321dd25-c3d4-4456-ade1-41230f17c79d}, !- HVAC Component
  {9aade7cb-cfca-4942-b9b2-97f2c62722f8}; !- Port 1

OS:PortList,
  {da67e95a-f56c-4cec-b94d-635a46d85270}, !- Handle
  {cb789c8d-9a22-48b2-bb07-a106a6504075}, !- Name
  {2321dd25-c3d4-4456-ade1-41230f17c79d}; !- HVAC Component

OS:Sizing:Zone,
  {e18332b3-7a73-40e7-965f-73bd39d95860}, !- Handle
  {2321dd25-c3d4-4456-ade1-41230f17c79d}, !- Zone or ZoneList Name
  SupplyAirTemperature,                   !- Zone Cooling Design Supply Air Temperature Input Method
  13.8888888888889,                       !- Zone Cooling Design Supply Air Temperature {C}
  11.11,                                  !- Zone Cooling Design Supply Air Temperature Difference {deltaC}
  SupplyAirTemperature,                   !- Zone Heating Design Supply Air Temperature Input Method
  50.0000000000001,                       !- Zone Heating Design Supply Air Temperature {C}
  11.11,                                  !- Zone Heating Design Supply Air Temperature Difference {deltaC}
  0.008,                                  !- Zone Cooling Design Supply Air Humidity Ratio {kg-H2O/kg-air}
  0.008,                                  !- Zone Heating Design Supply Air Humidity Ratio {kg-H2O/kg-air}
  ,                                       !- Zone Heating Sizing Factor
  ,                                       !- Zone Cooling Sizing Factor
  DesignDay,                              !- Cooling Design Air Flow Method
  ,                                       !- Cooling Design Air Flow Rate {m3/s}
  ,                                       !- Cooling Minimum Air Flow per Zone Floor Area {m3/s-m2}
  ,                                       !- Cooling Minimum Air Flow {m3/s}
  ,                                       !- Cooling Minimum Air Flow Fraction
  DesignDay,                              !- Heating Design Air Flow Method
  ,                                       !- Heating Design Air Flow Rate {m3/s}
  ,                                       !- Heating Maximum Air Flow per Zone Floor Area {m3/s-m2}
  ,                                       !- Heating Maximum Air Flow {m3/s}
  ,                                       !- Heating Maximum Air Flow Fraction
  ,                                       !- Design Zone Air Distribution Effectiveness in Cooling Mode
  ,                                       !- Design Zone Air Distribution Effectiveness in Heating Mode
  No,                                     !- Account for Dedicated Outdoor Air System
  NeutralSupplyAir,                       !- Dedicated Outdoor Air System Control Strategy
  autosize,                               !- Dedicated Outdoor Air Low Setpoint Temperature for Design {C}
  autosize;                               !- Dedicated Outdoor Air High Setpoint Temperature for Design {C}

OS:ZoneHVAC:EquipmentList,
  {96e6276c-f199-4c3a-8e92-bec0e45f6a4a}, !- Handle
  Zone Asm Auditorium  - Story Ground Zone HVAC Equipment List, !- Name
  {2321dd25-c3d4-4456-ade1-41230f17c79d}, !- Thermal Zone
  ,                                       !- Load Distribution Scheme
  {1381d5ac-4c9f-4355-a3ca-14b543ab74d1}, !- Zone Equipment 1
  1,                                      !- Zone Equipment Cooling Sequence 1
  1;                                      !- Zone Equipment Heating or No-Load Sequence 1

OS:Space,
  {ed4c38b9-c142-4d21-beca-309a7466bb0f}, !- Handle
  Asm OfficeGeneral  - Story Ground,      !- Name
  {e6e3e2e5-0e2d-450f-bfb7-70bec33c283a}, !- Space Type Name
  ,                                       !- Default Construction Set Name
  ,                                       !- Default Schedule Set Name
  -0,                                     !- Direction of Relative North {deg}
  1.17963506828849,                       !- X Origin {m}
  -4.66627796000195,                      !- Y Origin {m}
  0,                                      !- Z Origin {m}
  {7673c7ee-c8f5-421c-b66c-4c39fe16b3a8}, !- Building Story Name
  {234895a4-5626-4ac0-81a9-0cfed59cdcd9}; !- Thermal Zone Name

OS:Surface,
  {0b46dc3b-649f-41fb-bdaa-8232a0d85706}, !- Handle
  Surface 7,                              !- Name
  Floor,                                  !- Surface Type
  {024f0f13-f127-495c-aff1-82caa199f997}, !- Construction Name
  {ed4c38b9-c142-4d21-beca-309a7466bb0f}, !- Space Name
  Ground,                                 !- Outside Boundary Condition
  ,                                       !- Outside Boundary Condition Object
  NoSun,                                  !- Sun Exposure
  NoWind,                                 !- Wind Exposure
  ,                                       !- View Factor to Ground
  ,                                       !- Number of Vertices
  -4.21884749357559e-15, 4.44089209850063e-15, 0, !- X,Y,Z Vertex 1 {m}
  -4.21884749357559e-15, 9.33255592000391, 0, !- X,Y,Z Vertex 2 {m}
  17.4854767717193, 9.33255592000391, 0,  !- X,Y,Z Vertex 3 {m}
  17.4854767717193, 4.44089209850063e-15, 0; !- X,Y,Z Vertex 4 {m}

OS:Surface,
  {4c66d991-1b6c-4c6c-a7e6-d88644826c8f}, !- Handle
  Surface 8,                              !- Name
  Wall,                                   !- Surface Type
  ,                                       !- Construction Name
  {ed4c38b9-c142-4d21-beca-309a7466bb0f}, !- Space Name
  Surface,                                !- Outside Boundary Condition
  {955f4f74-d281-423a-84a8-5c9a46943fee}, !- Outside Boundary Condition Object
  NoSun,                                  !- Sun Exposure
  NoWind,                                 !- Wind Exposure
  ,                                       !- View Factor to Ground
  ,                                       !- Number of Vertices
  -4.21884749357559e-15, 9.33255592000391, 2.4384, !- X,Y,Z Vertex 1 {m}
  -4.21884749357559e-15, 9.33255592000391, 0, !- X,Y,Z Vertex 2 {m}
  -4.21884749357559e-15, 4.44089209850063e-15, 0, !- X,Y,Z Vertex 3 {m}
  -4.21884749357559e-15, 4.44089209850063e-15, 2.4384; !- X,Y,Z Vertex 4 {m}

OS:Surface,
  {abf6aa6e-aeda-4c91-a3b5-53577549af7a}, !- Handle
  Surface 9,                              !- Name
  Wall,                                   !- Surface Type
  {bf469352-458d-40e8-9194-7a2eb8a74e8d}, !- Construction Name
  {ed4c38b9-c142-4d21-beca-309a7466bb0f}, !- Space Name
  Outdoors,                               !- Outside Boundary Condition
  ,                                       !- Outside Boundary Condition Object
  SunExposed,                             !- Sun Exposure
  WindExposed,                            !- Wind Exposure
  ,                                       !- View Factor to Ground
  ,                                       !- Number of Vertices
  17.4854767717193, 9.33255592000391, 2.4384, !- X,Y,Z Vertex 1 {m}
  17.4854767717193, 9.33255592000391, 0,  !- X,Y,Z Vertex 2 {m}
  -4.21884749357559e-15, 9.33255592000391, 0, !- X,Y,Z Vertex 3 {m}
  -4.21884749357559e-15, 9.33255592000391, 2.4384; !- X,Y,Z Vertex 4 {m}

OS:Surface,
  {2021b5bb-7c3f-49a3-85d4-a3dbcd0412f5}, !- Handle
  Surface 10,                             !- Name
  Wall,                                   !- Surface Type
  {bf469352-458d-40e8-9194-7a2eb8a74e8d}, !- Construction Name
  {ed4c38b9-c142-4d21-beca-309a7466bb0f}, !- Space Name
  Outdoors,                               !- Outside Boundary Condition
  ,                                       !- Outside Boundary Condition Object
  SunExposed,                             !- Sun Exposure
  WindExposed,                            !- Wind Exposure
  ,                                       !- View Factor to Ground
  ,                                       !- Number of Vertices
  17.4854767717193, 4.44089209850063e-15, 2.4384, !- X,Y,Z Vertex 1 {m}
  17.4854767717193, 4.44089209850063e-15, 0, !- X,Y,Z Vertex 2 {m}
  17.4854767717193, 9.33255592000391, 0,  !- X,Y,Z Vertex 3 {m}
  17.4854767717193, 9.33255592000391, 2.4384; !- X,Y,Z Vertex 4 {m}

OS:Surface,
  {facba6af-5ae8-41e7-bce6-721e6942258c}, !- Handle
  Surface 11,                             !- Name
  Wall,                                   !- Surface Type
  {bf469352-458d-40e8-9194-7a2eb8a74e8d}, !- Construction Name
  {ed4c38b9-c142-4d21-beca-309a7466bb0f}, !- Space Name
  Outdoors,                               !- Outside Boundary Condition
  ,                                       !- Outside Boundary Condition Object
  SunExposed,                             !- Sun Exposure
  WindExposed,                            !- Wind Exposure
  ,                                       !- View Factor to Ground
  ,                                       !- Number of Vertices
  -4.21884749357559e-15, 4.44089209850063e-15, 2.4384, !- X,Y,Z Vertex 1 {m}
  -4.21884749357559e-15, 4.44089209850063e-15, 0, !- X,Y,Z Vertex 2 {m}
  17.4854767717193, 4.44089209850063e-15, 0, !- X,Y,Z Vertex 3 {m}
  17.4854767717193, 4.44089209850063e-15, 2.4384; !- X,Y,Z Vertex 4 {m}

OS:Surface,
  {331453c4-3c19-4d44-a3a5-c3daae9d7cf9}, !- Handle
  Surface 12,                             !- Name
  RoofCeiling,                            !- Surface Type
  ,                                       !- Construction Name
  {ed4c38b9-c142-4d21-beca-309a7466bb0f}, !- Space Name
  Surface,                                !- Outside Boundary Condition
  {f4a80069-6969-4113-b031-9ae1caef6b19}, !- Outside Boundary Condition Object
  NoSun,                                  !- Sun Exposure
  NoWind,                                 !- Wind Exposure
  ,                                       !- View Factor to Ground
  ,                                       !- Number of Vertices
  17.4854767717193, 4.44089209850063e-15, 2.4384, !- X,Y,Z Vertex 1 {m}
  17.4854767717193, 9.33255592000391, 2.4384, !- X,Y,Z Vertex 2 {m}
  -4.21884749357559e-15, 9.33255592000391, 2.4384, !- X,Y,Z Vertex 3 {m}
  -4.21884749357559e-15, 4.44089209850063e-15, 2.4384; !- X,Y,Z Vertex 4 {m}

OS:ThermalZone,
  {234895a4-5626-4ac0-81a9-0cfed59cdcd9}, !- Handle
  Zone Asm OfficeGeneral  - Story Ground, !- Name
  1,                                      !- Multiplier