
OS:Version,
  {293eb5e1-4535-4aa5-a5af-d0675becbca2}, !- Handle
  2.7.1;                                  !- Version Identifier

OS:WeatherFile,
  {8b872c0d-8087-4448-98a1-18d9e0bb6704}, !- Handle
  CA_LOS-ANGELES-DOWNTOWN-,               !- City
  -,                                      !- State Province Region
  USA,                                    !- Country
  Custom-722874,                          !- Data Source
  722874,                                 !- WMO Number
  34.03,                                  !- Latitude {deg}
  -118.3,                                 !- Longitude {deg}
  -8,                                     !- Time Zone {hr}
  56,                                     !- Elevation {m}
  file:////weather/CA_LOS-ANGELES-DOWNTOWN-USC_722874S_12.epw, !- Url
  288AE598;                               !- Checksum

OS:RunPeriodControl:DaylightSavingTime,
  {394db9a8-adc7-46e2-b4f5-c2731b0961fd}, !- Handle
  2nd Sunday in March,                    !- Start Date
  1st Sunday in November;                 !- End Date

OS:YearDescription,
  {b6cc701c-a0eb-468e-9197-29f820be411d}, !- Handle
  2015,                                   !- Calendar Year
  ,                                       !- Day of Week for Start Day
  ;                                       !- Is Leap Year

OS:Timestep,
  {7cbb6eee-f468-4b09-ad17-e10a299eaff3}, !- Handle
  4;                                      !- Number of Timesteps per Hour

OS:RunPeriod,
  {cf817827-2809-42e5-a452-8645204f9fa5}, !- Handle
  Run Period 1,                           !- Name
  1,                                      !- Begin Month
  1,                                      !- Begin Day of Month
  12,                                     !- End Month
  30,                                     !- End Day of Month
  ,                                       !- Use Weather File Holidays and Special Days
  ,                                       !- Use Weather File Daylight Saving Period
  ,                                       !- Apply Weekend Holiday Rule
  ,                                       !- Use Weather File Rain Indicators
  ,                                       !- Use Weather File Snow Indicators
  ;                                       !- Number of Times Runperiod to be Repeated

OS:Site,
  {af883a48-6138-4ba7-b2fe-7ac7f332b33c}, !- Handle
  CA_LOS-ANGELES-DOWNTOWN-_-_USA,         !- Name
  34.03,                                  !- Latitude {deg}
  -118.3,                                 !- Longitude {deg}
  -8,                                     !- Time Zone {hr}
  56,                                     !- Elevation {m}
  City;                                   !- Terrain

OS:Site:WaterMainsTemperature,
  {ae330b45-6bd8-4591-8aab-af52ecbd6953}, !- Handle
  Correlation,                            !- Calculation Method
  ,                                       !- Temperature Schedule Name
  17.9083333333333,                       !- Annual Average Outdoor Air Temperature {C}
  10.6;                                   !- Maximum Difference In Monthly Average Outdoor Air Temperatures {deltaC}

OS:SizingPeriod:DesignDay,
  {000da665-9590-45c4-bbb4-86acbce8d431}, !- Handle
  CA_LOS-ANGELES-DOWNTOWN- Ann Clg .4% Condns DB=>MWB 1, !- Name
  32.8,                                   !- Maximum Dry-Bulb Temperature {C}
  9.7,                                    !- Daily Dry-Bulb Temperature Range {deltaC}
  18.9,                                   !- Humidity Indicating Conditions at Maximum Dry-Bulb
  100654,                                 !- Barometric Pressure {Pa}
  1.5,                                    !- Wind Speed {m/s}
  0,                                      !- Wind Direction {deg}
  0,                                      !- Sky Clearness
  0,                                      !- Rain Indicator
  0,                                      !- Snow Indicator
  21,                                     !- Day of Month
  8,                                      !- Month
  SummerDesignDay,                        !- Day Type
  0,                                      !- Daylight Saving Time Indicator
  Wetbulb,                                !- Humidity Indicating Type
  ,                                       !- Humidity Indicating Day Schedule Name
  DefaultMultipliers,                     !- Dry-Bulb Temperature Range Modifier Type
  ,                                       !- Dry-Bulb Temperature Range Modifier Schedule Name
  ASHRAETau,                              !- Solar Model Indicator
  ,                                       !- Beam Solar Day Schedule Name
  ,                                       !- Diffuse Solar Day Schedule Name
  0.361,                                  !- ASHRAE Taub {dimensionless}
  2.436;                                  !- ASHRAE Taud {dimensionless}

OS:SizingPeriod:DesignDay,
  {98218f9f-98dc-42f0-aa17-9c6f16bc759e}, !- Handle
  CA_LOS-ANGELES-DOWNTOWN- Ann Clg .4% Condns WB=>MDB 1, !- Name
  29.2,                                   !- Maximum Dry-Bulb Temperature {C}
  9.7,                                    !- Daily Dry-Bulb Temperature Range {deltaC}
  22,                                     !- Humidity Indicating Conditions at Maximum Dry-Bulb
  100654,                                 !- Barometric Pressure {Pa}
  1.5,                                    !- Wind Speed {m/s}
  0,                                      !- Wind Direction {deg}
  0,                                      !- Sky Clearness
  0,                                      !- Rain Indicator
  0,                                      !- Snow Indicator
  21,                                     !- Day of Month
  8,                                      !- Month
  SummerDesignDay,                        !- Day Type
  0,                                      !- Daylight Saving Time Indicator
  Wetbulb,                                !- Humidity Indicating Type
  ,                                       !- Humidity Indicating Day Schedule Name
  DefaultMultipliers,                     !- Dry-Bulb Temperature Range Modifier Type
  ,                                       !- Dry-Bulb Temperature Range Modifier Schedule Name
  ASHRAETau,                              !- Solar Model Indicator
  ,                                       !- Beam Solar Day Schedule Name
  ,                                       !- Diffuse Solar Day Schedule Name
  0.361,                                  !- ASHRAE Taub {dimensionless}
  2.436;                                  !- ASHRAE Taud {dimensionless}

OS:SizingPeriod:DesignDay,
  {3e4e3159-77a2-4bc1-bc5e-ecaf964f7c84}, !- Handle
  CA_LOS-ANGELES-DOWNTOWN- Ann Htg 99.6% Condns DB 1, !- Name
  6.2,                                    !- Maximum Dry-Bulb Temperature {C}
  0,                                      !- Daily Dry-Bulb Temperature Range {deltaC}
  6.2,                                    !- Humidity Indicating Conditions at Maximum Dry-Bulb
  100654,                                 !- Barometric Pressure {Pa}
  0.2,                                    !- Wind Speed {m/s}
  0,                                      !- Wind Direction {deg}
  0,                                      !- Sky Clearness
  0,                                      !- Rain Indicator
  0,                                      !- Snow Indicator
  21,                                     !- Day of Month
  12,                                     !- Month
  WinterDesignDay,                        !- Day Type
  0,                                      !- Daylight Saving Time Indicator
  Wetbulb,                                !- Humidity Indicating Type
  ,                                       !- Humidity Indicating Day Schedule Name
  DefaultMultipliers,                     !- Dry-Bulb Temperature Range Modifier Type
  ,                                       !- Dry-Bulb Temperature Range Modifier Schedule Name
  ASHRAEClearSky;                         !- Solar Model Indicator

OS:ClimateZones,
  {bebc4eca-32c8-4eed-84c2-eac55e27b8c6}, !- Handle
  ,                                       !- Active Institution
  ,                                       !- Active Year
  CEC,                                    !- Climate Zone Institution Name 1
  California Climate Zone Descriptions,   !- Climate Zone Document Name 1
  1995,                                   !- Climate Zone Document Year 1
  8;                                      !- Climate Zone Value 1

OS:SpaceType,
  {4ec59ccb-df2b-4114-85de-1ec549dcd706}, !- Handle
  RtS RetailSales - DEER Pre-1975,        !- Name
  ,                                       !- Default Construction Set Name
  {648e3a8c-1ad4-4b59-b160-dbfd508e6be3}, !- Default Schedule Set Name
  ,                                       !- Group Rendering Name
  {91a5245b-7a23-4c92-9932-7ee28e59dcfd}, !- Design Specification Outdoor Air Object Name
  ,                                       !- Standards Template
  RtS,                                    !- Standards Building Type
  RetailSales;                            !- Standards Space Type

OS:SpaceType,
  {da1b2a80-f54d-4626-8703-d32213fc8351}, !- Handle
  RtS StockRoom - DEER Pre-1975,          !- Name
  ,                                       !- Default Construction Set Name
  {5e4731d9-7627-477b-ab31-0cdcfa70abbe}, !- Default Schedule Set Name
  ,                                       !- Group Rendering Name
  {405f5f6f-7921-40ef-934b-c3e38082e0a8}, !- Design Specification Outdoor Air Object Name
  ,                                       !- Standards Template
  RtS,                                    !- Standards Building Type
  StockRoom;                              !- Standards Space Type

OS:Building,
  {74d1691c-6fe7-4131-b979-fa90e4581ec8}, !- Handle
  DEER Pre-1975|RtS,                      !- Name
  ,                                       !- Building Sector Type
  315,                                    !- North Axis {deg}
  ,                                       !- Nominal Floor to Floor Height {m}
  ,                                       !- Space Type Name
  {1628c415-c4de-4417-b7f2-2ac09bb622fd}, !- Default Construction Set Name
  {1697bc10-af1b-42ef-9ef2-e02b8024255b}, !- Default Schedule Set Name
  ,                                       !- Standards Number of Stories
  ,                                       !- Standards Number of Above Ground Stories
  ,                                       !- Standards Template
  RtS;                                    !- Standards Building Type

OS:BuildingStory,
  {ab04b6ce-b7f5-43b1-be35-5e474989f145}, !- Handle
  Story Ground,                           !- Name
  0,                                      !- Nominal Z Coordinate {m}
  4.2672,                                 !- Nominal Floor to Floor Height {m}
  ,                                       !- Default Construction Set Name
  ,                                       !- Default Schedule Set Name
  ;                                       !- Group Rendering Name

OS:Space,
  {25637fb2-e086-412c-bdd3-8ed5c2e70514}, !- Handle
  RtS RetailSales A end_a - Story Ground, !- Name
  {4ec59ccb-df2b-4114-85de-1ec549dcd706}, !- Space Type Name
  ,                                       !- Default Construction Set Name
  ,                                       !- Default Schedule Set Name
  -0,                                     !- Direction of Relative North {deg}
  -5.9024266196201,                       !- X Origin {m}
  -5.9024266196201,                       !- Y Origin {m}
  0,                                      !- Z Origin {m}
  {ab04b6ce-b7f5-43b1-be35-5e474989f145}, !- Building Story Name
  {4b9872b8-27a0-45de-9772-d0b36a0e303f}; !- Thermal Zone Name

OS:Surface,
  {983c16a8-0503-472d-9190-951a5f2037e4}, !- Handle
  Surface 1,                              !- Name
  Floor,                                  !- Surface Type
  {b8b7196f-f70d-49c4-ba8c-6b782e64f17c}, !- Construction Name
  {25637fb2-e086-412c-bdd3-8ed5c2e70514}, !- Space Name
  Ground,                                 !- Outside Boundary Condition
  ,                                       !- Outside Boundary Condition Object
  NoSun,                                  !- Sun Exposure
  NoWind,                                 !- Wind Exposure
  ,                                       !- View Factor to Ground
  ,                                       !- Number of Vertices
  3.5527136788005e-15, 3.5527136788005e-15, 0, !- X,Y,Z Vertex 1 {m}
  3.5527136788005e-15, 4.572, 0,          !- X,Y,Z Vertex 2 {m}
  4.572, 4.572, 0,                        !- X,Y,Z Vertex 3 {m}
  4.572, 3.5527136788005e-15, 0;          !- X,Y,Z Vertex 4 {m}

OS:Surface,
  {83b509de-1a97-4542-af48-ac1e200ba5d2}, !- Handle
  Surface 2,                              !- Name
  Wall,                                   !- Surface Type
  {7ab80d54-3d39-41f0-8205-9f1d7f7fe43f}, !- Construction Name
  {25637fb2-e086-412c-bdd3-8ed5c2e70514}, !- Space Name
  Outdoors,                               !- Outside Boundary Condition
  ,                                       !- Outside Boundary Condition Object
  SunExposed,                             !- Sun Exposure
  WindExposed,                            !- Wind Exposure
  ,                                       !- View Factor to Ground
  ,                                       !- Number of Vertices
  3.5527136788005e-15, 4.572, 4.2672,     !- X,Y,Z Vertex 1 {m}
  3.5527136788005e-15, 4.572, 0,          !- X,Y,Z Vertex 2 {m}
  3.5527136788005e-15, 3.5527136788005e-15, 0, !- X,Y,Z Vertex 3 {m}
  3.5527136788005e-15, 3.5527136788005e-15, 4.2672; !- X,Y,Z Vertex 4 {m}

OS:Surface,
  {de16313a-a397-4d86-bb2d-d9f9392b86f8}, !- Handle
  Surface 3,                              !- Name
  Wall,                                   !- Surface Type
  ,                                       !- Construction Name
  {25637fb2-e086-412c-bdd3-8ed5c2e70514}, !- Space Name
  Surface,                                !- Outside Boundary Condition
  {a9009c53-b4b7-477a-8f3a-d090fb9921c5}, !- Outside Boundary Condition Object
  NoSun,                                  !- Sun Exposure
  NoWind,                                 !- Wind Exposure
  ,                                       !- View Factor to Ground
  ,                                       !- Number of Vertices
  4.572, 4.572, 4.2672,                   !- X,Y,Z Vertex 1 {m}
  4.572, 4.572, 0,                        !- X,Y,Z Vertex 2 {m}
  3.5527136788005e-15, 4.572, 0,          !- X,Y,Z Vertex 3 {m}
  3.5527136788005e-15, 4.572, 4.2672;     !- X,Y,Z Vertex 4 {m}

OS:Surface,
  {9cf16594-8594-4585-afa6-5daf24484e04}, !- Handle
  Surface 4,                              !- Name
  Wall,                                   !- Surface Type
  ,                                       !- Construction Name
  {25637fb2-e086-412c-bdd3-8ed5c2e70514}, !- Space Name
  Surface,                                !- Outside Boundary Condition
  {6d217d3d-dd4a-4842-b0b8-3eb970494e84}, !- Outside Boundary Condition Object
  NoSun,                                  !- Sun Exposure
  NoWind,                                 !- Wind Exposure
  ,                                       !- View Factor to Ground
  ,                                       !- Number of Vertices
  4.572, 3.5527136788005e-15, 4.2672,     !- X,Y,Z Vertex 1 {m}
  4.572, 3.5527136788005e-15, 0,          !- X,Y,Z Vertex 2 {m}
  4.572, 4.572, 0,                        !- X,Y,Z Vertex 3 {m}
  4.572, 4.572, 4.2672;                   !- X,Y,Z Vertex 4 {m}

OS:Surface,
  {63df5731-b6e6-42f9-a728-6744ed32bbcf}, !- Handle
  Surface 5,                              !- Name
  Wall,                                   !- Surface Type
  {7ab80d54-3d39-41f0-8205-9f1d7f7fe43f}, !- Construction Name
  {25637fb2-e086-412c-bdd3-8ed5c2e70514}, !- Space Name
  Outdoors,                               !- Outside Boundary Condition
  ,                                       !- Outside Boundary Condition Object
  SunExposed,                             !- Sun Exposure
  WindExposed,                            !- Wind Exposure
  ,                                       !- View Factor to Ground
  ,                                       !- Number of Vertices
  3.5527136788005e-15, 3.5527136788005e-15, 4.2672, !- X,Y,Z Vertex 1 {m}
  3.5527136788005e-15, 3.5527136788005e-15, 0, !- X,Y,Z Vertex 2 {m}
  4.572, 3.5527136788005e-15, 0,          !- X,Y,Z Vertex 3 {m}
  4.572, 3.5527136788005e-15, 4.2672;     !- X,Y,Z Vertex 4 {m}

OS:Surface,
  {b5e1bf7f-9abf-43e4-9c94-7b7899ee6d03}, !- Handle
  Surface 6,                              !- Name
  RoofCeiling,                            !- Surface Type
  ,                                       !- Construction Name
  {25637fb2-e086-412c-bdd3-8ed5c2e70514}, !- Space Name
  Surface,                                !- Outside Boundary Condition
  {4524fcb1-2348-4b25-a1c0-e15d7fcf7b21}, !- Outside Boundary Condition Object
  NoSun,                                  !- Sun Exposure
  NoWind,                                 !- Wind Exposure
  ,                                       !- View Factor to Ground
  ,                                       !- Number of Vertices
  4.572, 3.5527136788005e-15, 4.2672,     !- X,Y,Z Vertex 1 {m}
  4.572, 4.572, 4.2672,                   !- X,Y,Z Vertex 2 {m}
  3.5527136788005e-15, 4.572, 4.2672,     !- X,Y,Z Vertex 3 {m}
  3.5527136788005e-15, 3.5527136788005e-15, 4.2672; !- X,Y,Z Vertex 4 {m}

OS:ThermalZone,
  {4b9872b8-27a0-45de-9772-d0b36a0e303f}, !- Handle
  Zone RtS RetailSales A end_a - Story Ground, !- Name
  1,                                      !- Multiplier
  ,                                       !- Ceiling Height {m}
  ,                                       !- Volume {m3}
  ,                                       !- Floor Area {m2}
  ,                                       !- Zone Inside Convection Algorithm
  ,                                       !- Zone Outside Convection Algorithm
  ,                                       !- Zone Conditioning Equipment List Name
  {55065fe7-1e6d-44ec-836d-1ed7c560bf45}, !- Zone Air Inlet Port List
  {898fa8fc-4385-4046-bc08-e93ea7715208}, !- Zone Air Exhaust Port List
  {e2e0c687-826b-4c1b-b0b0-00f8f3e85ee5}, !- Zone Air Node Name
  {27affbdc-972b-4d43-a38a-7fb667681dbb}, !- Zone Return Air Port List
  ,                                       !- Primary Daylighting Control Name
  ,                                       !- Fraction of Zone Controlled by Primary Daylighting Control
  ,                                       !- Secondary Daylighting Control Name
  ,                                       !- Fraction of Zone Controlled by Secondary Daylighting Control
  ,                                       !- Illuminance Map Name
  ,                                       !- Group Rendering Name
  {6b0d06f2-0910-4c25-9e4c-bcf819fb2d04}, !- Thermostat Name
  No;                                     !- Use Ideal Air Loads

OS:Node,
  {8b9daaa8-4867-4838-9c20-ff7551fa30ee}, !- Handle
  Zone RtS RetailSales A end_a - Story Ground Zone Air Node, !- Name
  {e2e0c687-826b-4c1b-b0b0-00f8f3e85ee5}, !- Inlet Port
  ;                                       !- Outlet Port

OS:Connection,
  {e2e0c687-826b-4c1b-b0b0-00f8f3e85ee5}, !- Handle
  {43cf670d-981f-4201-96f2-9cc7787f2a63}, !- Name
  {4b9872b8-27a0-45de-9772-d0b36a0e303f}, !- Source Object
  11,                                     !- Outlet Port
  {8b9daaa8-4867-4838-9c20-ff7551fa30ee}, !- Target Object
  2;                                      !- Inlet Port

OS:PortList,
  {55065fe7-1e6d-44ec-836d-1ed7c560bf45}, !- Handle
  {30619e2f-7c38-4b43-a036-3311f221dd0c}, !- Name
  {4b9872b8-27a0-45de-9772-d0b36a0e303f}, !- HVAC Component
  {27fefac7-6668-4347-8a46-87707153d728}; !- Port 1

OS:PortList,
  {898fa8fc-4385-4046-bc08-e93ea7715208}, !- Handle
  {d19d4c8f-efb7-499c-ae31-06e3445e13c6}, !- Name
  {4b9872b8-27a0-45de-9772-d0b36a0e303f}, !- HVAC Component
  {699e3a6f-d2d0-4993-a536-8661ae9484d6}; !- Port 1

OS:PortList,
  {27affbdc-972b-4d43-a38a-7fb667681dbb}, !- Handle
  {3c604b55-58e0-4243-9329-1df9c7dbbd53}, !- Name
  {4b9872b8-27a0-45de-9772-d0b36a0e303f}; !- HVAC Component

OS:Sizing:Zone,
  {36cb44d1-1847-4a69-819c-ece622985f92}, !- Handle
  {4b9872b8-27a0-45de-9772-d0b36a0e303f}, !- Zone or ZoneList Name
  SupplyAirTemperature,                   !- Zone Cooling Design Supply Air Temperature Input Method
  13.8888888888889,                       !- Zone Cooling Design Supply Air Temperature {C}
  11.11,                                  !- Zone Cooling Design Supply Air Temperature Difference {deltaC}
  SupplyAirTemperature,                   !- Zone Heating Design Supply Air Temperature Input Method
  50.0000000000001,                       !- Zone Heating Design Supply Air Temperature {C}
  11.11,                                  !- Zone Heating Design Supply Air Temperature Difference {deltaC}
  0.008,                                  !- Zone Cooling Design Supply Air Humidity Ratio {kg-H2O/kg-air}
  0.008,                                  !- Zone Heating Design Supply Air Humidity Ratio {kg-H2O/kg-air}
  ,                                       !- Zone Heating Sizing Factor
  ,                                       !- Zone Cooling Sizing Factor
  DesignDay,                              !- Cooling Design Air Flow Method
  ,                                       !- Cooling Design Air Flow Rate {m3/s}
  ,                                       !- Cooling Minimum Air Flow per Zone Floor Area {m3/s-m2}
  ,                                       !- Cooling Minimum Air Flow {m3/s}
  ,                                       !- Cooling Minimum Air Flow Fraction
  DesignDay,                              !- Heating Design Air Flow Method
  ,                                       !- Heating Design Air Flow Rate {m3/s}
  ,                                       !- Heating Maximum Air Flow per Zone Floor Area {m3/s-m2}
  ,                                       !- Heating Maximum Air Flow {m3/s}
  ,                                       !- Heating Maximum Air Flow Fraction
  ,                                       !- Design Zone Air Distribution Effectiveness in Cooling Mode
  ,                                       !- Design Zone Air Distribution Effectiveness in Heating Mode
  No,                                     !- Account for Dedicated Outdoor Air System
  NeutralSupplyAir,                       !- Dedicated Outdoor Air System Control Strategy
  autosize,                               !- Dedicated Outdoor Air Low Setpoint Temperature for Design {C}
  autosize;                               !- Dedicated Outdoor Air High Setpoint Temperature for Design {C}

OS:ZoneHVAC:EquipmentList,
  {905e91fe-3375-4c40-9cb1-2b785baa2244}, !- Handle
  Zone RtS RetailSales A end_a - Story Ground Zone HVAC Equipment List, !- Name
  {4b9872b8-27a0-45de-9772-d0b36a0e303f}, !- Thermal Zone
  ,                                       !- Load Distribution Scheme
  {f0396da6-4dde-4d2b-9df5-b9a3ae7df96f}, !- Zone Equipment 1
  1,                                      !- Zone Equipment Cooling Sequence 1
  1;                                      !- Zone Equipment Heating or No-Load Sequence 1

OS:Space,
  {f280bcb5-35de-463c-9706-5fc33332e7c8}, !- Handle
  RtS RetailSales B end_a - Story Ground, !- Name
  {4ec59ccb-df2b-4114-85de-1ec549dcd706}, !- Space Type Name
  ,                                       !- Default Construction Set Name
  ,                                       !- Default Schedule Set Name
  -0,                                     !- Direction of Relative North {deg}
  -5.9024266196201,                       !- X Origin {m}
  -1.3304266196201,                       !- Y Origin {m}
  0,                                      !- Z Origin {m}
  {ab04b6ce-b7f5-43b1-be35-5e474989f145}, !- Building Story Name
  {6fa1580f-e28d-4384-bd5c-a29d95ecb415}; !- Thermal Zone Name

OS:Surface,
  {6cb3abd5-67cf-4b72-9a27-bc3969b5e942}, !- Handle
  Surface 7,                              !- Name
  Floor,                                  !- Surface Type
  {b8b7196f-f70d-49c4-ba8c-6b782e64f17c}, !- Construction Name
  {f280bcb5-35de-463c-9706-5fc33332e7c8}, !- Space Name
  Ground,                                 !- Outside Boundary Condition
  ,                                       !- Outside Boundary Condition Object
  NoSun,                                  !- Sun Exposure
  NoWind,                                 !- Wind Exposure
  ,                                       !- View Factor to Ground
  ,                                       !- Number of Vertices
  3.5527136788005e-15, 3.77475828372553e-15, 0, !- X,Y,Z Vertex 1 {m}
  3.5527136788005e-15, 2.6608532392402, 0, !- X,Y,Z Vertex 2 {m}
  4.572, 2.6608532392402, 0,              !- X,Y,Z Vertex 3 {m}
  4.572, 3.77475828372553e-15, 0;         !- X,Y,Z Vertex 4 {m}

OS:Surface,
  {54d1daa6-27c2-4e30-9d9b-56bf807bd0ce}, !- Handle
  Surface 8,                              !- Name
  Wall,                                   !- Surface Type
  {7ab80d54-3d39-41f0-8205-9f1d7f7fe43f}, !- Construction Name
  {f280bcb5-35de-463c-9706-5fc33332e7c8}, !- Space Name
  Outdoors,                               !- Outside Boundary Condition
  ,                                       !- Outside Boundary Condition Object
  SunExposed,                             !- Sun Exposure
  WindExposed,                            !- Wind Exposure
  ,                                       !- View Factor to Ground
  ,                                       !- Number of Vertices
  3.5527136788005e-15, 2.6608532392402, 4.2672, !- X,Y,Z Vertex 1 {m}
  3.5527136788005e-15, 2.6608532392402, 0, !- X,Y,Z Vertex 2 {m}
  3.5527136788005e-15, 3.77475828372553e-15, 0, !- X,Y,Z Vertex 3 {m}
  3.5527136788005e-15, 3.77475828372553e-15, 4.2672; !- X,Y,Z Vertex 4 {m}

OS:Surface,
  {995c1aff-e72d-4b58-90f8-2e38a388a2b7}, !- Handle
  Surface 9,                              !- Name
  Wall,                                   !- Surface Type
  ,                                       !- Construction Name
  {f280bcb5-35de-463c-9706-5fc33332e7c8}, !- Space Name
  Surface,                                !- Outside Boundary Condition
  {9663597a-7266-4d28-9b35-5808494d359f}, !- Outside Boundary Condition Object
  NoSun,                                  !- Sun Exposure
  NoWind,                                 !- Wind Exposure
  ,                                       !- View Factor to Ground
  ,                                       !- Number of Vertices
  4.572, 2.6608532392402, 4.2672,         !- X,Y,Z Vertex 1 {m}
  4.572, 2.6608532392402, 0,              !- X,Y,Z Vertex 2 {m}
  3.5527136788005e-15, 2.6608532392402, 0, !- X,Y,Z Vertex 3 {m}
  3.5527136788005e-15, 2.6608532392402, 4.2672; !- X,Y,Z Vertex 4 {m}

OS:Surface,
  {e10a948b-9145-4db4-ae52-cc8b12791117}, !- Handle
  Surface 10,                             !- Name
  Wall,                                   !- Surface Type
  ,                                       !- Construction Name
  {f280bcb5-35de-463c-9706-5fc33332e7c8}, !- Space Name
  Surface,                                !- Outside Boundary Condition
  {c86434cf-9d3a-46b1-867b-0df12210aa57}, !- Outside Boundary Condition Object
  NoSun,                                  !- Sun Exposure
  NoWind,                                 !- Wind Exposure
  ,                                       !- View Factor to Ground
  ,                                       !- Number of Vertices
  4.572, 3.77475828372553e-15, 4.2672,    !- X,Y,Z Vertex 1 {m}
  4.572, 3.77475828372553e-15, 0,         !- X,Y,Z Vertex 2 {m}
  4.572, 2.6608532392402, 0,              !- X,Y,Z Vertex 3 {m}
  4.572, 2.6608532392402, 4.2672;         !- X,Y,Z Vertex 4 {m}

OS:Surface,
  {a9009c53-b4b7-477a-8f3a-d090fb9921c5}, !- Handle
  Surface 11,                             !- Name
  Wall,                                   !- Surface Type
  ,                                       !- Construction Name
  {f280bcb5-35de-463c-9706-5fc33332e7c8}, !- Space Name
  Surface,                                !- Outside Boundary Condition
  {de16313a-a397-4d86-bb2d-d9f9392b86f8}, !- Outside Boundary Condition Object
  NoSun,                                  !- Sun Exposure
  NoWind,                                 !- Wind Exposure
  ,                                       !- View Factor to Ground
  ,                                       !- Number of Vertices
  3.5527136788005e-15, 3.77475828372553e-15, 4.2672, !- X,Y,Z Vertex 1 {m}
  3.5527136788005e-15, 3.77475828372553e-15, 0, !- X,Y,Z Vertex 2 {m}
  4.572, 3.77475828372553e-15, 0,         !- X,Y,Z Vertex 3 {m}
  4.572, 3.77475828372553e-15, 4.2672;    !- X,Y,Z Vertex 4 {m}

OS:Surface,
  {0556b5de-7615-4596-be4d-ecb8673ca2b3}, !- Handle
  Surface 12,                             !- Name
  RoofCeiling,                            !- Surface Type
  ,                                       !- Construction Name
  {f280bcb5-35de-463c-9706-5fc33332e7c8}, !- Space Name
  Surface,                                !- Outside Boundary Condition
  {876d8d03-d39c-4b3a-a089-db30bfa925fb}, !- Outside Boundary Condition Object
  NoSun,                                  !- Sun Exposure
  NoWind,                                 !- Wind Exposure
  ,                                       !- View Factor to Ground
  ,                                       !- Number of Vertices
  4.572, 3.77475828372553e-15, 4.2672,    !- X,Y,Z Vertex 1 {m}
  4.572, 2.6608532392402, 4.2672,         !- X,Y,Z Vertex 2 {m}
  3.5527136788005e-15, 2.6608532392402, 4.2672, !- X,Y,Z Vertex 3 {m}
  3.5527136788005e-15, 3.77475828372553e-15, 4.2672; !- X,Y,Z Vertex 4 {m}

OS:ThermalZone,
  {6fa1580f-e28d-4384-bd5c-a29d95ecb415}, !- Handle
  Zone RtS RetailSales B end_a - Story Ground, !- Name
  1,                                      !- Multiplier
  ,                                       !- Ceiling Height {m}
  ,                                       !- Volume {m3}