
OS:Version,
  {5200f42f-8bfb-480e-b252-c557fc477d13}, !- Handle
  3.8.0;                                  !- Version Identifier

OS:Facility,
  {82f8513c-36d7-4c42-968d-4392733134b2}; !- Handle

OS:Site,
  {20bedcf5-9523-4d51-8e8c-a24e1097a71e}, !- Handle
  Barstow Daggett_CA_USA,                 !- Name
  34.85,                                  !- Latitude {deg}
  -116.79,                                !- Longitude {deg}
  -8,                                     !- Time Zone {hr}
  588,                                    !- Elevation {m}
  City;                                   !- Terrain

OS:SimulationControl,
  {b2901bf6-4168-4802-b87b-879558e76c69}, !- Handle
  ,                                       !- Do Zone Sizing Calculation
  ,                                       !- Do System Sizing Calculation
  ,                                       !- Do Plant Sizing Calculation
  No,                                     !- Run Simulation for Sizing Periods
  Yes,                                    !- Run Simulation for Weather File Run Periods
  ,                                       !- Loads Convergence Tolerance Value {W}
  ,                                       !- Temperature Convergence Tolerance Value {deltaC}
  ,                                       !- Solar Distribution
  ,                                       !- Maximum Number of Warmup Days
  ,                                       !- Minimum Number of Warmup Days
  No,                                     !- Do HVAC Sizing Simulation for Sizing Periods
  1;                                      !- Maximum Number of HVAC Sizing Simulation Passes

OS:Sizing:Parameters,
  {926bf161-1c8b-433c-a2db-1940fe6b87a6}, !- Handle
  1.25,                                   !- Heating Sizing Factor
  1.15;                                   !- Cooling Sizing Factor

OS:Timestep,
  {edaf5efc-5702-49cb-9939-41ddd9ae63ae}, !- Handle
  4;                                      !- Number of Timesteps per Hour

OS:ShadowCalculation,
  {43773418-c176-4acd-aa03-f46b34dc6f54}, !- Handle
  PolygonClipping,                        !- Shading Calculation Method
  ,                                       !- Shading Calculation Update Frequency Method
  20,                                     !- Shading Calculation Update Frequency
  15000,                                  !- Maximum Figures in Shadow Overlap Calculations
  ,                                       !- Polygon Clipping Algorithm
  512,                                    !- Pixel Counting Resolution
  ,                                       !- Sky Diffuse Modeling Algorithm
  No,                                     !- Output External Shading Calculation Results
  No,                                     !- Disable Self-Shading Within Shading Zone Groups
  No;                                     !- Disable Self-Shading From Shading Zone Groups to Other Zones

OS:HeatBalanceAlgorithm,
  {4f2d9d81-31b9-4728-b494-f47a1e65e952}, !- Handle
  ConductionTransferFunction,             !- Algorithm
  200;                                    !- Surface Temperature Upper Limit {C}

OS:RunPeriod,
  {7559cc6b-3c3e-40f6-9578-8e4f83d5ed80}, !- Handle
  Run Period 1,                           !- Name
  1,                                      !- Begin Month
  1,                                      !- Begin Day of Month
  12,                                     !- End Month
  31,                                     !- End Day of Month
  ,                                       !- Use Weather File Holidays and Special Days
  ,                                       !- Use Weather File Daylight Saving Period
  ,                                       !- Apply Weekend Holiday Rule
  ,                                       !- Use Weather File Rain Indicators
  ,                                       !- Use Weather File Snow Indicators
  ;                                       !- Number of Times Runperiod to be Repeated

OS:LifeCycleCost:Parameters,
  {dc91f71c-5740-4e35-9d88-3fd2796c3b0f}, !- Handle
  ,                                       !- Analysis Type
  ,                                       !- Discounting Convention
  ,                                       !- Inflation Approach
  ,                                       !- Real Discount Rate
  ,                                       !- Nominal Discount Rate
  ,                                       !- Inflation
  ,                                       !- Base Date Month
  ,                                       !- Base Date Year
  ,                                       !- Service Date Month
  ,                                       !- Service Date Year
  ;                                       !- Length of Study Period in Years

OS:WeatherFile,
  {d581f863-fbc0-408f-a696-6d1a14cb5ee0}, !- Handle
  Barstow Daggett,                        !- City
  CA,                                     !- State Province Region
  USA,                                    !- Country
  customized weather file,                !- Data Source
  723815,                                 !- WMO Number
  34.85,                                  !- Latitude {deg}
  -116.79,                                !- Longitude {deg}
  -8,                                     !- Time Zone {hr}
  588,                                    !- Elevation {m}
  /weather/G0600710.epw,                  !- Url
  226BE93E,                               !- Checksum
  ,                                       !- Start Date Actual Year
  Friday;                                 !- Start Day of Week

OS:Site:WaterMainsTemperature,
  {11d78794-be52-465d-bd04-2aee832bc8c8}, !- Handle
  Correlation,                            !- Calculation Method
  ,                                       !- Temperature Schedule Name
  20.6066666666667,                       !- Annual Average Outdoor Air Temperature {C}
  25.37;                                  !- Maximum Difference In Monthly Average Outdoor Air Temperatures {deltaC}

OS:SizingPeriod:DesignDay,
  {b2917b96-b664-4c43-b7b7-b619f08a1f36}, !- Handle
  Barstow Daggett Ann Clg .4% Condns DB=>MWB 1, !- Name
  42.5,                                   !- Maximum Dry-Bulb Temperature {C}
  16.6,                                   !- Daily Dry-Bulb Temperature Range {deltaC}
  94458,                                  !- Barometric Pressure {Pa}
  4.8,                                    !- Wind Speed {m/s}
  290,                                    !- Wind Direction {deg}
  ,                                       !- Sky Clearness
  No,                                     !- Rain Indicator
  No,                                     !- Snow Indicator
  21,                                     !- Day of Month
  7,                                      !- Month
  SummerDesignDay,                        !- Day Type
  No,                                     !- Daylight Saving Time Indicator
  Wetbulb,                                !- Humidity Condition Type
  ,                                       !- Humidity Condition Day Schedule Name
  20.7,                                   !- Wetbulb or DewPoint at Maximum Dry-Bulb {C}
  ,                                       !- Humidity Ratio at Maximum Dry-Bulb {kgWater/kgDryAir}
  ,                                       !- Enthalpy at Maximum Dry-Bulb {J/kg}
  DefaultMultipliers,                     !- Dry-Bulb Temperature Range Modifier Type
  ,                                       !- Dry-Bulb Temperature Range Modifier Day Schedule Name
  ASHRAETau,                              !- Solar Model Indicator
  ,                                       !- Beam Solar Day Schedule Name
  ,                                       !- Diffuse Solar Day Schedule Name
  0.321,                                  !- ASHRAE Clear Sky Optical Depth for Beam Irradiance {dimensionless}
  2.432;                                  !- ASHRAE Clear Sky Optical Depth for Diffuse Irradiance {dimensionless}

OS:SizingPeriod:DesignDay,
  {6e971531-ae19-49ec-be13-9779558639cb}, !- Handle
  Barstow Daggett Ann Clg .4% Condns WB=>MDB 1, !- Name
  37.5,                                   !- Maximum Dry-Bulb Temperature {C}
  16.6,                                   !- Daily Dry-Bulb Temperature Range {deltaC}
  94458,                                  !- Barometric Pressure {Pa}
  4.8,                                    !- Wind Speed {m/s}
  290,                                    !- Wind Direction {deg}
  ,                                       !- Sky Clearness
  No,                                     !- Rain Indicator
  No,                                     !- Snow Indicator
  21,                                     !- Day of Month
  7,                                      !- Month
  SummerDesignDay,                        !- Day Type
  No,                                     !- Daylight Saving Time Indicator
  Wetbulb,                                !- Humidity Condition Type
  ,                                       !- Humidity Condition Day Schedule Name
  22.7,                                   !- Wetbulb or DewPoint at Maximum Dry-Bulb {C}
  ,                                       !- Humidity Ratio at Maximum Dry-Bulb {kgWater/kgDryAir}
  ,                                       !- Enthalpy at Maximum Dry-Bulb {J/kg}
  DefaultMultipliers,                     !- Dry-Bulb Temperature Range Modifier Type
  ,                                       !- Dry-Bulb Temperature Range Modifier Day Schedule Name
  ASHRAETau,                              !- Solar Model Indicator
  ,                                       !- Beam Solar Day Schedule Name
  ,                                       !- Diffuse Solar Day Schedule Name
  0.321,                                  !- ASHRAE Clear Sky Optical Depth for Beam Irradiance {dimensionless}
  2.432;                                  !- ASHRAE Clear Sky Optical Depth for Diffuse Irradiance {dimensionless}

OS:SizingPeriod:DesignDay,
  {708652a7-e9d5-447d-9992-1e8206678f35}, !- Handle
  Barstow Daggett Ann Htg 99.6% Condns DB 1, !- Name
  -1.8,                                   !- Maximum Dry-Bulb Temperature {C}
  0,                                      !- Daily Dry-Bulb Temperature Range {deltaC}
  94458,                                  !- Barometric Pressure {Pa}
  2.6,                                    !- Wind Speed {m/s}
  280,                                    !- Wind Direction {deg}
  0,                                      !- Sky Clearness
  No,                                     !- Rain Indicator
  No,                                     !- Snow Indicator
  21,                                     !- Day of Month
  12,                                     !- Month
  WinterDesignDay,                        !- Day Type
  No,                                     !- Daylight Saving Time Indicator
  Wetbulb,                                !- Humidity Condition Type
  ,                                       !- Humidity Condition Day Schedule Name
  -1.8,                                   !- Wetbulb or DewPoint at Maximum Dry-Bulb {C}
  ,                                       !- Humidity Ratio at Maximum Dry-Bulb {kgWater/kgDryAir}
  ,                                       !- Enthalpy at Maximum Dry-Bulb {J/kg}
  DefaultMultipliers,                     !- Dry-Bulb Temperature Range Modifier Type
  ,                                       !- Dry-Bulb Temperature Range Modifier Day Schedule Name
  ASHRAEClearSky;                         !- Solar Model Indicator

OS:SizingPeriod:DesignDay,
  {e532181b-f02f-49fa-96cd-b9ad18d46dab}, !- Handle
  Barstow Daggett August .4% Condns DB=>MCWB 1, !- Name
  43.6,                                   !- Maximum Dry-Bulb Temperature {C}
  16.4,                                   !- Daily Dry-Bulb Temperature Range {deltaC}
  94458,                                  !- Barometric Pressure {Pa}
  4.8,                                    !- Wind Speed {m/s}
  290,                                    !- Wind Direction {deg}
  ,                                       !- Sky Clearness
  No,                                     !- Rain Indicator
  No,                                     !- Snow Indicator
  21,                                     !- Day of Month
  8,                                      !- Month
  SummerDesignDay,                        !- Day Type
  No,                                     !- Daylight Saving Time Indicator
  Wetbulb,                                !- Humidity Condition Type
  ,                                       !- Humidity Condition Day Schedule Name
  21.7,                                   !- Wetbulb or DewPoint at Maximum Dry-Bulb {C}
  ,                                       !- Humidity Ratio at Maximum Dry-Bulb {kgWater/kgDryAir}
  ,                                       !- Enthalpy at Maximum Dry-Bulb {J/kg}
  DefaultMultipliers,                     !- Dry-Bulb Temperature Range Modifier Type
  ,                                       !- Dry-Bulb Temperature Range Modifier Day Schedule Name
  ASHRAETau,                              !- Solar Model Indicator
  ,                                       !- Beam Solar Day Schedule Name
  ,                                       !- Diffuse Solar Day Schedule Name
  0.332,                                  !- ASHRAE Clear Sky Optical Depth for Beam Irradiance {dimensionless}
  2.431;                                  !- ASHRAE Clear Sky Optical Depth for Diffuse Irradiance {dimensionless}

OS:SizingPeriod:DesignDay,
  {8fa1a916-8bba-49e5-b572-558b14c73dc1}, !- Handle
  Barstow Daggett October .4% Condns DB=>MCWB 1, !- Name
  36.3,                                   !- Maximum Dry-Bulb Temperature {C}
  15.3,                                   !- Daily Dry-Bulb Temperature Range {deltaC}
  94458,                                  !- Barometric Pressure {Pa}
  4.8,                                    !- Wind Speed {m/s}
  290,                                    !- Wind Direction {deg}
  ,                                       !- Sky Clearness
  No,                                     !- Rain Indicator
  No,                                     !- Snow Indicator
  21,                                     !- Day of Month
  10,                                     !- Month
  SummerDesignDay,                        !- Day Type
  No,                                     !- Daylight Saving Time Indicator
  Wetbulb,                                !- Humidity Condition Type
  ,                                       !- Humidity Condition Day Schedule Name
  17.2,                                   !- Wetbulb or DewPoint at Maximum Dry-Bulb {C}
  ,                                       !- Humidity Ratio at Maximum Dry-Bulb {kgWater/kgDryAir}
  ,                                       !- Enthalpy at Maximum Dry-Bulb {J/kg}
  DefaultMultipliers,                     !- Dry-Bulb Temperature Range Modifier Type
  ,                                       !- Dry-Bulb Temperature Range Modifier Day Schedule Name
  ASHRAETau,                              !- Solar Model Indicator
  ,                                       !- Beam Solar Day Schedule Name
  ,                                       !- Diffuse Solar Day Schedule Name
  0.325,                                  !- ASHRAE Clear Sky Optical Depth for Beam Irradiance {dimensionless}
  2.491;                                  !- ASHRAE Clear Sky Optical Depth for Diffuse Irradiance {dimensionless}

OS:SizingPeriod:DesignDay,
  {f0f522e1-09cd-4073-b7c4-d0e70f3129ce}, !- Handle
  Barstow Daggett September .4% Condns DB=>MCWB 1, !- Name
  40.8,                                   !- Maximum Dry-Bulb Temperature {C}
  16.2,                                   !- Daily Dry-Bulb Temperature Range {deltaC}
  94458,                                  !- Barometric Pressure {Pa}
  4.8,                                    !- Wind Speed {m/s}
  290,                                    !- Wind Direction {deg}
  ,                                       !- Sky Clearness
  No,                                     !- Rain Indicator
  No,                                     !- Snow Indicator
  21,                                     !- Day of Month
  9,                                      !- Month
  SummerDesignDay,                        !- Day Type
  No,                                     !- Daylight Saving Time Indicator
  Wetbulb,                                !- Humidity Condition Type
  ,                                       !- Humidity Condition Day Schedule Name
  19.4,                                   !- Wetbulb or DewPoint at Maximum Dry-Bulb {C}
  ,                                       !- Humidity Ratio at Maximum Dry-Bulb {kgWater/kgDryAir}
  ,                                       !- Enthalpy at Maximum Dry-Bulb {J/kg}
  DefaultMultipliers,                     !- Dry-Bulb Temperature Range Modifier Type
  ,                                       !- Dry-Bulb Temperature Range Modifier Day Schedule Name
  ASHRAETau,                              !- Solar Model Indicator
  ,                                       !- Beam Solar Day Schedule Name
  ,                                       !- Diffuse Solar Day Schedule Name
  0.315,                                  !- ASHRAE Clear Sky Optical Depth for Beam Irradiance {dimensionless}
  2.542;                                  !- ASHRAE Clear Sky Optical Depth for Diffuse Irradiance {dimensionless}

OS:ClimateZones,
  {4e1f232e-af2f-404f-8f37-52b8f0accf13}, !- Handle
  CEC,                                    !- Climate Zone Institution Name 1
  California Climate Zone Descriptions,   !- Climate Zone Document Name 1
  1995,                                   !- Climate Zone Document Year 1
  10;                                     !- Climate Zone Value 1

OS:RunPeriodControl:DaylightSavingTime,
  {bcd1c66b-662b-4698-99cf-b121b474d4e9}, !- Handle
  2nd Sunday in March,                    !- Start Date
  1st Sunday in November;                 !- End Date

OS:YearDescription,
  {2fe1da9e-d1cf-4b5f-aaf4-980a63106658}, !- Handle
  2018,                                   !- Calendar Year
  ,                                       !- Day of Week for Start Day
  ;                                       !- Is Leap Year

OS:Building,
  {f3cbfae9-0aa1-42cb-bb33-97eb2c2da49c}, !- Handle
  ComStock DEER Pre-1975|SUn,             !- Name
  ,                                       !- Building Sector Type
  135,                                    !- North Axis {deg}
  ,                                       !- Nominal Floor to Floor Height {m}
  ,                                       !- Space Type Name
  {c951f9a8-46a7-4441-b86b-a9ab4baacf0b}, !- Default Construction Set Name
  {fd415464-f723-408b-a417-16ad9a6db068}, !- Default Schedule Set Name
  ,                                       !- Standards Number of Stories
  ,                                       !- Standards Number of Above Ground Stories
  ,                                       !- Standards Template
  SUn;                                    !- Standards Building Type

OS:AdditionalProperties,
  {eda2b71f-db3f-47cb-aea1-25fd880286ed}, !- Handle
  {f3cbfae9-0aa1-42cb-bb33-97eb2c2da49c}, !- Object Name
  Building,                               !- Feature Name 1
  String,                                 !- Feature Data Type 1
  467,                                    !- Feature Value 1
  Soil Conductivity,                      !- Feature Name 2
  Double,                                 !- Feature Data Type 2
  1.1000000000000001,                     !- Feature Value 2
  Undisturbed Ground Temperature,         !- Feature Name 3
  Double,                                 !- Feature Data Type 3
  19.699999999999999,                     !- Feature Value 3
  airtightness,                           !- Feature Name 4
  String,                                 !- Feature Data Type 4
  30.0,                                   !- Feature Value 4
  american_housing_survey_region,         !- Feature Name 5
  String,                                 !- Feature Data Type 5
  CBSA Riverside-San Bernardino-Ontario&#44 CA, !- Feature Value 5
  aspect_ratio,                           !- Feature Name 6
  String,                                 !- Feature Data Type 6
  1,                                      !- Feature Value 6
  baseline_hvac_sizing,                   !- Feature Name 7
  String,                                 !- Feature Data Type 7
  hardsize,                               !- Feature Value 7
  baseline_window_type,                   !- Feature Name 8
  String,                                 !- Feature Data Type 8
  Double - No LowE - Clear - Aluminum,    !- Feature Value 8
  building_shape,                         !- Feature Name 9
  String,                                 !- Feature Data Type 9
  2,                                      !- Feature Value 9
  building_size_lighting_tech,            !- Feature Name 10
  String,                                 !- Feature Data Type 10
  large,                                  !- Feature Value 10
  building_subtype,                       !- Feature Name 11
  String,                                 !- Feature Data Type 11
  NA,                                     !- Feature Value 11
  building_type,                          !- Feature Name 12
  String,                                 !- Feature Data Type 12
  warehouse,                              !- Feature Value 12
  cambium_grid_region,                    !- Feature Name 13
  String,                                 !- Feature Data Type 13
  CAMXc,                                  !- Feature Value 13
  census_division_name,                   !- Feature Name 14
  String,                                 !- Feature Data Type 14
  Pacific,                                !- Feature Value 14
  census_division_name_recs,              !- Feature Name 15
  String,                                 !- Feature Data Type 15
  Pacific,                                !- Feature Value 15
  census_region_name,                     !- Feature Name 16
  String,                                 !- Feature Data Type 16
  West,                                   !- Feature Value 16
  climate_zone,                           !- Feature Name 17
  String,                                 !- Feature Data Type 17
  3B,                                     !- Feature Value 17
  climate_zone_ashrae_2006,               !- Feature Name 18
  String,                                 !- Feature Data Type 18
  3B,                                     !- Feature Value 18
  climate_zone_building_america,          !- Feature Name 19
  String,                                 !- Feature Data Type 19
  Hot-Dry,                                !- Feature Value 19
  cluster_id,                             !- Feature Name 20
  String,                                 !- Feature Data Type 20
  110,                                    !- Feature Value 20
  cluster_name,                           !- Feature Name 21
  String,                                 !- Feature Data Type 21
  CA Climate Zone 10,                     !- Feature Value 21
  cook_broiler_counts,                    !- Feature Name 22
  String,                                 !- Feature Data Type 22
  0.0,                                    !- Feature Value 22
  cook_dining_type,                       !- Feature Name 23
  String,                                 !- Feature Data Type 23
  None,                                   !- Feature Value 23
  cook_fryers_counts,                     !- Feature Name 24
  String,                                 !- Feature Data Type 24
  0.0,                                    !- Feature Value 24
  cook_fuel_broiler,                      !- Feature Name 25
  String,                                 !- Feature Data Type 25
  Gas,                                    !- Feature Value 25
  cook_fuel_fryer,                        !- Feature Name 26
  String,                                 !- Feature Data Type 26
  Gas,                                    !- Feature Value 26
  cook_fuel_griddle,                      !- Feature Name 27
  String,                                 !- Feature Data Type 27
  Gas,                                    !- Feature Value 27
  cook_fuel_oven,                         !- Feature Name 28
  String,                                 !- Feature Data Type 28
  Electric,                               !- Feature Value 28
  cook_fuel_range,                        !- Feature Name 29
  String,                                 !- Feature Data Type 29
  Gas,                                    !- Feature Value 29
  cook_fuel_steamer,                      !- Feature Name 30
  String,                                 !- Feature Data Type 30
  Electric,                               !- Feature Value 30
  cook_griddles_counts,                   !- Feature Name 31
  String,                                 !- Feature Data Type 31
  0.0,                                    !- Feature Value 31
  cook_ovens_counts,                      !- Feature Name 32
  String,                                 !- Feature Data Type 32
  0.0,                                    !- Feature Value 32
  cook_ranges_counts,                     !- Feature Name 33
  String,                                 !- Feature Data Type 33
  0.0,                                    !- Feature Value 33
  cook_steamers_counts,                   !- Feature Name 34
  String,                                 !- Feature Data Type 34
  0.0,                                    !- Feature Value 34
  county_id,                              !- Feature Name 35
  String,                                 !- Feature Data Type 35
  G0600710,                               !- Feature Value 35
  energy_code_compliance_during_original_building_construction, !- Feature Name 36
  String,                                 !- Feature Data Type 36
  comply,                                 !- Feature Value 36
  energy_code_compliance_exterior_lighting, !- Feature Name 37
  String,                                 !- Feature Data Type 37
  comply,                                 !- Feature Value 37
  energy_code_compliance_hvac,            !- Feature Name 38
  String,                                 !- Feature Data Type 38
  comply,                                 !- Feature Value 38
  energy_code_compliance_interior_equipment, !- Feature Name 39
  String,                                 !- Feature Data Type 39
  comply,                                 !- Feature Value 39
  energy_code_compliance_interior_lighting, !- Feature Name 40
  String,                                 !- Feature Data Type 40
  lead,                                   !- Feature Value 40
  energy_code_compliance_roof,            !- Feature Name 41
  String,                                 !- Feature Data Type 41
  comply,                                 !- Feature Value 41
  energy_code_compliance_service_water_heating, !- Feature Name 42
  String,                                 !- Feature Data Type 42
  comply,                                 !- Feature Value 42
  energy_code_compliance_walls,           !- Feature Name 43
  String,                                 !- Feature Data Type 43
  comply,                                 !- Feature Value 43
  energy_code_compliance_windows,         !- Feature Name 44
  String,                                 !- Feature Data Type 44
  comply,                                 !- Feature Value 44
  energy_code_followed_during_last_exterior_lighting_replacement, !- Feature Name 45
  String,                                 !- Feature Data Type 45
  ComStock DEER 2007,                     !- Feature Value 45
  energy_code_followed_during_last_hvac_replacement, !- Feature Name 46
  String,                                 !- Feature Data Type 46
  ComStock DEER 2017,                     !- Feature Value 46
  energy_code_followed_during_last_interior_equipment_replacement, !- Feature Name 47
  String,                                 !- Feature Data Type 47
  ComStock DEER 2007,                     !- Feature Value 47
  energy_code_followed_during_last_interior_lighting_replacement, !- Feature Name 48
  String,                                 !- Feature Data Type 48
  ComStock DEER 2017,                     !- Feature Value 48
  energy_code_followed_during_last_roof_replacement, !- Feature Name 49
  String,                                 !- Feature Data Type 49
  ComStock DEER Pre-1975,                 !- Feature Value 49
  energy_code_followed_during_last_service_water_heating_replacement, !- Feature Name 50
  String,                                 !- Feature Data Type 50
  ComStock DEER 2017,                     !- Feature Value 50
  energy_code_followed_during_last_walls_replacement, !- Feature Name 51
  String,                                 !- Feature Data Type 51
  ComStock DEER Pre-1975,                 !- Feature Value 51
  energy_code_followed_during_last_windows_replacement, !- Feature Name 52
  String,                                 !- Feature Data Type 52
  ComStock DEER Pre-1975,                 !- Feature Value 52
  energy_code_followed_during_original_building_construction, !- Feature Name 53
  String,                                 !- Feature Data Type 53
  ComStock DEER Pre-1975,                 !- Feature Value 53
  energy_code_in_force_during_last_exterior_lighting_replacement, !- Feature Name 54
  String,                                 !- Feature Data Type 54
  ComStock DEER 2007,                     !- Feature Value 54
  energy_code_in_force_during_last_hvac_replacement, !- Feature Name 55
  String,                                 !- Feature Data Type 55
  ComStock DEER 2017,                     !- Feature Value 55
  energy_code_in_force_during_last_interior_equipment_replacement, !- Feature Name 56
  String,                                 !- Feature Data Type 56