
OS:Version,
  {655fc38b-d2be-4470-8d34-5380a87ef68f}, !- Handle
  3.6.1;                                  !- Version Identifier

OS:Facility,
  {6dce2fbf-75eb-45c4-a80a-3ddd7d171367}; !- Handle

OS:Site,
  {c0de32c9-929b-4b7d-8e11-8cbd4124766c}, !- Handle
  Chicago Ohare Intl Ap,                  !- Name
  41.98,                                  !- Latitude {deg}
  -87.92,                                 !- Longitude {deg}
  -6,                                     !- Time Zone {hr}
  201,                                    !- Elevation {m}
  City;                                   !- Terrain

OS:SimulationControl,
  {f8817d4d-d871-402e-aaf2-1383d845e91f}, !- Handle
  ,                                       !- Do Zone Sizing Calculation
  ,                                       !- Do System Sizing Calculation
  ,                                       !- Do Plant Sizing Calculation
  No,                                     !- Run Simulation for Sizing Periods
  Yes,                                    !- Run Simulation for Weather File Run Periods
  ,                                       !- Loads Convergence Tolerance Value {W}
  ,                                       !- Temperature Convergence Tolerance Value {deltaC}
  ,                                       !- Solar Distribution
  ,                                       !- Maximum Number of Warmup Days
  ,                                       !- Minimum Number of Warmup Days
  No,                                     !- Do HVAC Sizing Simulation for Sizing Periods
  1;                                      !- Maximum Number of HVAC Sizing Simulation Passes

OS:Sizing:Parameters,
  {6213af68-8184-4102-a072-d5c34301b6b0}, !- Handle
  1.25,                                   !- Heating Sizing Factor
  1.15;                                   !- Cooling Sizing Factor

OS:Timestep,
  {9b6e8de9-16b3-45e3-ba18-04eeadc7b0b2}, !- Handle
  4;                                      !- Number of Timesteps per Hour

OS:ShadowCalculation,
  {0df39560-33a1-4ce1-8bc3-69f969151f39}, !- Handle
  PolygonClipping,                        !- Shading Calculation Method
  ,                                       !- Shading Calculation Update Frequency Method
  20,                                     !- Shading Calculation Update Frequency
  15000,                                  !- Maximum Figures in Shadow Overlap Calculations
  ,                                       !- Polygon Clipping Algorithm
  512,                                    !- Pixel Counting Resolution
  ,                                       !- Sky Diffuse Modeling Algorithm
  No,                                     !- Output External Shading Calculation Results
  No,                                     !- Disable Self-Shading Within Shading Zone Groups
  No;                                     !- Disable Self-Shading From Shading Zone Groups to Other Zones

OS:HeatBalanceAlgorithm,
  {f4d59911-c9f1-448e-a55e-f482550e38cc}, !- Handle
  ConductionTransferFunction,             !- Algorithm
  200;                                    !- Surface Temperature Upper Limit {C}

OS:RunPeriod,
  {e01098c5-2b29-499f-b477-875f15db1719}, !- Handle
  Run Period 1,                           !- Name
  1,                                      !- Begin Month
  1,                                      !- Begin Day of Month
  12,                                     !- End Month
  31,                                     !- End Day of Month
  ,                                       !- Use Weather File Holidays and Special Days
  ,                                       !- Use Weather File Daylight Saving Period
  ,                                       !- Apply Weekend Holiday Rule
  ,                                       !- Use Weather File Rain Indicators
  ,                                       !- Use Weather File Snow Indicators
  ;                                       !- Number of Times Runperiod to be Repeated

OS:LifeCycleCost:Parameters,
  {f0af6de1-618b-422d-b6dd-4300b6263a8c}, !- Handle
  ,                                       !- Analysis Type
  ,                                       !- Discounting Convention
  ,                                       !- Inflation Approach
  ,                                       !- Real Discount Rate
  ,                                       !- Nominal Discount Rate
  ,                                       !- Inflation
  ,                                       !- Base Date Month
  ,                                       !- Base Date Year
  ,                                       !- Service Date Month
  ,                                       !- Service Date Year
  ;                                       !- Length of Study Period in Years

OS:Site:WaterMainsTemperature,
  {ecb4fce1-5ebb-4453-84b3-207561c77c11}, !- Handle
  Correlation,                            !- Calculation Method
  ,                                       !- Temperature Schedule Name
  12.5683333333333,                       !- Annual Average Outdoor Air Temperature {C}
  24.99;                                  !- Maximum Difference In Monthly Average Outdoor Air Temperatures {deltaC}

OS:ClimateZones,
  {22581745-34ed-4ffc-8ebe-5a46b230ab8d}, !- Handle
  ASHRAE,                                 !- Climate Zone Institution Name 1
  ANSI/ASHRAE Standard 169,               !- Climate Zone Document Name 1
  2006,                                   !- Climate Zone Document Year 1
  ASHRAE 169-2013-4A,                     !- Climate Zone Value 1
  CEC,                                    !- Climate Zone Institution Name 2
  California Climate Zone Descriptions,   !- Climate Zone Document Name 2
  1995,                                   !- Climate Zone Document Year 2
  ;                                       !- Climate Zone Value 2

OS:Building,
  {fe9e5001-6cd2-491f-b2d7-513c12103bcb}, !- Handle
  ComStock DOE Ref 1980-2004|RetailStripmall|FullServiceRestaurant, !- Name
  ,                                       !- Building Sector Type
  180,                                    !- North Axis {deg}
  ,                                       !- Nominal Floor to Floor Height {m}
  ,                                       !- Space Type Name
  {44e36c78-b0e3-43e7-a233-eb651f3869a9}, !- Default Construction Set Name
  {8f1db065-3479-4545-8705-ed0d98063fa6}, !- Default Schedule Set Name
  ,                                       !- Standards Number of Stories
  ,                                       !- Standards Number of Above Ground Stories
  ,                                       !- Standards Template
  StripMall;                              !- Standards Building Type

OS:AdditionalProperties,
  {751d7afc-5af2-4d6c-ade0-01dc64f19326}, !- Handle
  {fe9e5001-6cd2-491f-b2d7-513c12103bcb}, !- Object Name
  grid_region,                            !- Feature Name 1
  String,                                 !- Feature Data Type 1
  RFCWc,                                  !- Feature Value 1
  hvac_system_type,                       !- Feature Name 2
  String,                                 !- Feature Data Type 2
  PVAV with gas heat with electric reheat, !- Feature Value 2
  wall_as_constructed_template,           !- Feature Name 3
  String,                                 !- Feature Data Type 3
  ComStock DOE Ref 1980-2004,             !- Feature Value 3
  wall_template,                          !- Feature Name 4
  String,                                 !- Feature Data Type 4
  ComStock DOE Ref 1980-2004,             !- Feature Value 4
  roof_as_constructed_template,           !- Feature Name 5
  String,                                 !- Feature Data Type 5
  ComStock DOE Ref 1980-2004,             !- Feature Value 5
  roof_template,                          !- Feature Name 6
  String,                                 !- Feature Data Type 6
  ComStock DOE Ref 1980-2004,             !- Feature Value 6
  exterior_lighting_as_constructed_template, !- Feature Name 7
  String,                                 !- Feature Data Type 7
  ComStock DOE Ref 1980-2004,             !- Feature Value 7
  exterior_lighting_template,             !- Feature Name 8
  String,                                 !- Feature Data Type 8
  ComStock 90.1-2007,                     !- Feature Value 8
  interior_equipment_as_constructed_template, !- Feature Name 9
  String,                                 !- Feature Data Type 9
  ComStock DOE Ref 1980-2004,             !- Feature Value 9
  interior_equipment_template,            !- Feature Name 10
  String,                                 !- Feature Data Type 10
  ComStock DOE Ref 1980-2004,             !- Feature Value 10
  service_water_heating_as_constructed_template, !- Feature Name 11
  String,                                 !- Feature Data Type 11
  ComStock DOE Ref 1980-2004,             !- Feature Value 11
  service_water_heating_template,         !- Feature Name 12
  String,                                 !- Feature Data Type 12
  ComStock 90.1-2007,                     !- Feature Value 12
  hvac_as_constructed_template,           !- Feature Name 13
  String,                                 !- Feature Data Type 13
  ComStock DOE Ref 1980-2004,             !- Feature Value 13
  hvac_template,                          !- Feature Name 14
  String,                                 !- Feature Data Type 14
  ComStock DOE Ref 1980-2004;             !- Feature Value 14

OS:SpaceType,
  {595caab2-0406-46a0-9ae9-f78554b2412a}, !- Handle
  StripMall Strip mall - type 1 - ComStock DOE Ref 1980-2004, !- Name
  ,                                       !- Default Construction Set Name
  {70a866c9-7f9d-4f0e-84c8-b8e78823d952}, !- Default Schedule Set Name
  {dc30a15b-133b-4613-9b3c-1f435e654b5f}, !- Group Rendering Name
  {b375b42c-5518-4f09-b15f-f531635a801f}, !- Design Specification Outdoor Air Object Name
  ,                                       !- Standards Template
  StripMall,                              !- Standards Building Type
  Strip mall - type 1;                    !- Standards Space Type

OS:Rendering:Color,
  {dc30a15b-133b-4613-9b3c-1f435e654b5f}, !- Handle
  StripMall Strip mall - type 1,          !- Name
  171,                                    !- Rendering Red Value
  222,                                    !- Rendering Green Value
  78;                                     !- Rendering Blue Value

OS:SpaceType,
  {69f3b572-69aa-42be-8fef-f687b8199830}, !- Handle
  StripMall Strip mall - type 2 - ComStock DOE Ref 1980-2004, !- Name
  ,                                       !- Default Construction Set Name
  {38a06de2-7baa-41cb-a840-b9a95ed73337}, !- Default Schedule Set Name
  {b5a7c9d1-847e-4145-ad8c-525143c99481}, !- Group Rendering Name
  {204429b2-9814-4d42-8c53-8d3010360057}, !- Design Specification Outdoor Air Object Name
  ,                                       !- Standards Template
  StripMall,                              !- Standards Building Type
  Strip mall - type 2;                    !- Standards Space Type

OS:Rendering:Color,
  {b5a7c9d1-847e-4145-ad8c-525143c99481}, !- Handle
  StripMall Strip mall - type 2,          !- Name
  171,                                    !- Rendering Red Value
  222,                                    !- Rendering Green Value
  78;                                     !- Rendering Blue Value

OS:SpaceType,
  {60e184d9-428b-422f-bd4f-167ddba81c22}, !- Handle
  StripMall Strip mall - type 3 - ComStock DOE Ref 1980-2004, !- Name
  ,                                       !- Default Construction Set Name
  {4f868c21-d220-4a83-b462-9de563c9e231}, !- Default Schedule Set Name
  {21f971a6-5c6b-4600-b7cf-0360b31ff979}, !- Group Rendering Name
  {9de63e21-3e4d-4084-8093-0af5142d4dd9}, !- Design Specification Outdoor Air Object Name
  ,                                       !- Standards Template
  StripMall,                              !- Standards Building Type
  Strip mall - type 3;                    !- Standards Space Type

OS:Rendering:Color,
  {21f971a6-5c6b-4600-b7cf-0360b31ff979}, !- Handle
  StripMall Strip mall - type 3,          !- Name
  171,                                    !- Rendering Red Value
  222,                                    !- Rendering Green Value
  78;                                     !- Rendering Blue Value

OS:SpaceType,
  {1ea3d986-babd-4035-a92c-078976341b73}, !- Handle
  FullServiceRestaurant Kitchen - ComStock DOE Ref 1980-2004, !- Name
  ,                                       !- Default Construction Set Name
  {6610f04b-973b-4c10-84e4-5a3adc4e5d69}, !- Default Schedule Set Name
  {59b76398-09c6-4224-b61d-d5fd8d23a8e7}, !- Group Rendering Name
  {40638f8b-8b02-4eed-858a-40ac95c6fe62}, !- Design Specification Outdoor Air Object Name
  ,                                       !- Standards Template
  FullServiceRestaurant,                  !- Standards Building Type
  Kitchen;                                !- Standards Space Type

OS:Rendering:Color,
  {59b76398-09c6-4224-b61d-d5fd8d23a8e7}, !- Handle
  FullServiceRestaurant Kitchen,          !- Name
  78,                                     !- Rendering Red Value
  222,                                    !- Rendering Green Value
  133;                                    !- Rendering Blue Value

OS:SpaceType,
  {efcb370a-3869-4160-ba68-16fe69191f1e}, !- Handle
  FullServiceRestaurant Dining - ComStock DOE Ref 1980-2004, !- Name
  ,                                       !- Default Construction Set Name
  {f3b7e365-5868-491d-a77c-9a1cbaffa45c}, !- Default Schedule Set Name
  {cc1ac55f-796e-4796-a205-ac6df0285c8f}, !- Group Rendering Name
  {e3def5b6-642f-4e75-bbdd-8d036c0dfd8b}, !- Design Specification Outdoor Air Object Name
  ,                                       !- Standards Template
  FullServiceRestaurant,                  !- Standards Building Type
  Dining;                                 !- Standards Space Type

OS:Rendering:Color,
  {cc1ac55f-796e-4796-a205-ac6df0285c8f}, !- Handle
  FullServiceRestaurant Dining,           !- Name
  31,                                     !- Rendering Red Value
  169,                                    !- Rendering Green Value
  34;                                     !- Rendering Blue Value

OS:BuildingStory,
  {9a7e7737-2385-44f6-aebc-25f79b3e10c2}, !- Handle
  Story Ground,                           !- Name
  0,                                      !- Nominal Z Coordinate {m}
  5.1816,                                 !- Nominal Floor to Floor Height {m}
  ,                                       !- Default Construction Set Name
  ,                                       !- Default Schedule Set Name
  ;                                       !- Group Rendering Name

OS:Space,
  {f35346c5-7896-4a03-a5a2-eb93a178cacf}, !- Handle
  StripMall Strip mall - type 1 A end_a - Story Ground, !- Name
  {595caab2-0406-46a0-9ae9-f78554b2412a}, !- Space Type Name
  ,                                       !- Default Construction Set Name
  ,                                       !- Default Schedule Set Name
  -0,                                     !- Direction of Relative North {deg}
  20.8682294409468,                       !- X Origin {m}
  -20.8682294409468,                      !- Y Origin {m}
  0,                                      !- Z Origin {m}
  {9a7e7737-2385-44f6-aebc-25f79b3e10c2}, !- Building Story Name
  {f10ac399-8d51-49b1-90f9-3a1d5e6ddef8}; !- Thermal Zone Name

OS:Surface,
  {180be462-6398-4e15-b845-b9b00134551b}, !- Handle
  Surface 1,                              !- Name
  Floor,                                  !- Surface Type
  {5df44856-1fb5-4251-987d-908d95b29b2f}, !- Construction Name
  {f35346c5-7896-4a03-a5a2-eb93a178cacf}, !- Space Name
  GroundFCfactorMethod,                   !- Outside Boundary Condition
  ,                                       !- Outside Boundary Condition Object
  NoSun,                                  !- Sun Exposure
  NoWind,                                 !- Wind Exposure
  ,                                       !- View Factor to Ground
  ,                                       !- Number of Vertices
  -2.8421709430404e-14, 3.19744231092045e-14, 0, !- X,Y,Z Vertex 1 {m}
  -4.57200000000003, 3.19744231092045e-14, 0, !- X,Y,Z Vertex 2 {m}
  -4.57200000000003, 4.57200000000003, 0, !- X,Y,Z Vertex 3 {m}
  -2.8421709430404e-14, 4.57200000000003, 0; !- X,Y,Z Vertex 4 {m}

OS:Surface,
  {8d8a445b-2664-4081-bd7c-2685193f8725}, !- Handle
  Surface 2,                              !- Name
  Wall,                                   !- Surface Type
  ,                                       !- Construction Name
  {f35346c5-7896-4a03-a5a2-eb93a178cacf}, !- Space Name
  Outdoors,                               !- Outside Boundary Condition
  ,                                       !- Outside Boundary Condition Object
  SunExposed,                             !- Sun Exposure
  WindExposed,                            !- Wind Exposure
  ,                                       !- View Factor to Ground
  ,                                       !- Number of Vertices
  -4.57200000000003, 3.19744231092045e-14, 5.1816, !- X,Y,Z Vertex 1 {m}
  -4.57200000000003, 3.19744231092045e-14, 0, !- X,Y,Z Vertex 2 {m}
  -2.8421709430404e-14, 3.19744231092045e-14, 0, !- X,Y,Z Vertex 3 {m}
  -2.8421709430404e-14, 3.19744231092045e-14, 5.1816; !- X,Y,Z Vertex 4 {m}

OS:Surface,
  {63cd9040-c0fa-4d0d-b289-103e09cb644d}, !- Handle
  Surface 3,                              !- Name
  Wall,                                   !- Surface Type
  ,                                       !- Construction Name
  {f35346c5-7896-4a03-a5a2-eb93a178cacf}, !- Space Name
  Surface,                                !- Outside Boundary Condition
  {3320768a-20c9-4fe4-b4da-7581e172c9d0}, !- Outside Boundary Condition Object
  NoSun,                                  !- Sun Exposure
  NoWind,                                 !- Wind Exposure
  ,                                       !- View Factor to Ground
  ,                                       !- Number of Vertices
  -4.57200000000003, 4.57200000000003, 5.1816, !- X,Y,Z Vertex 1 {m}
  -4.57200000000003, 4.57200000000003, 0, !- X,Y,Z Vertex 2 {m}
  -4.57200000000003, 3.19744231092045e-14, 0, !- X,Y,Z Vertex 3 {m}
  -4.57200000000003, 3.19744231092045e-14, 5.1816; !- X,Y,Z Vertex 4 {m}

OS:Surface,
  {83b96a06-4b2a-455a-a7ae-7da09af8cbf9}, !- Handle
  Surface 4,                              !- Name
  Wall,                                   !- Surface Type
  ,                                       !- Construction Name
  {f35346c5-7896-4a03-a5a2-eb93a178cacf}, !- Space Name
  Surface,                                !- Outside Boundary Condition
  {af12091b-874f-4083-bd07-4803acd62d19}, !- Outside Boundary Condition Object
  NoSun,                                  !- Sun Exposure
  NoWind,                                 !- Wind Exposure
  ,                                       !- View Factor to Ground
  ,                                       !- Number of Vertices
  -2.8421709430404e-14, 4.57200000000003, 5.1816, !- X,Y,Z Vertex 1 {m}
  -2.8421709430404e-14, 4.57200000000003, 0, !- X,Y,Z Vertex 2 {m}
  -4.57200000000003, 4.57200000000003, 0, !- X,Y,Z Vertex 3 {m}
  -4.57200000000003, 4.57200000000003, 5.1816; !- X,Y,Z Vertex 4 {m}

OS:Surface,
  {47010d5b-d29a-4657-8d9e-53c0e9c11cfb}, !- Handle
  Surface 5,                              !- Name
  Wall,                                   !- Surface Type
  ,                                       !- Construction Name
  {f35346c5-7896-4a03-a5a2-eb93a178cacf}, !- Space Name
  Outdoors,                               !- Outside Boundary Condition
  ,                                       !- Outside Boundary Condition Object
  SunExposed,                             !- Sun Exposure
  WindExposed,                            !- Wind Exposure
  ,                                       !- View Factor to Ground
  ,                                       !- Number of Vertices
  -2.8421709430404e-14, 3.19744231092045e-14, 5.1816, !- X,Y,Z Vertex 1 {m}
  -2.8421709430404e-14, 3.19744231092045e-14, 0, !- X,Y,Z Vertex 2 {m}
  -2.8421709430404e-14, 4.57200000000003, 0, !- X,Y,Z Vertex 3 {m}
  -2.8421709430404e-14, 4.57200000000003, 5.1816; !- X,Y,Z Vertex 4 {m}

OS:Surface,
  {382b0d3d-67cd-4695-8a4d-ab06bd067d89}, !- Handle
  Surface 6,                              !- Name
  RoofCeiling,                            !- Surface Type
  {2a291cee-453d-4e98-bfe4-fbdd1fff5e66}, !- Construction Name
  {f35346c5-7896-4a03-a5a2-eb93a178cacf}, !- Space Name
  Adiabatic,                              !- Outside Boundary Condition
  ,                                       !- Outside Boundary Condition Object
  NoSun,                                  !- Sun Exposure
  NoWind,                                 !- Wind Exposure
  ,                                       !- View Factor to Ground
  ,                                       !- Number of Vertices
  -2.8421709430404e-14, 4.57200000000003, 5.1816, !- X,Y,Z Vertex 1 {m}
  -4.57200000000003, 4.57200000000003, 5.1816, !- X,Y,Z Vertex 2 {m}
  -4.57200000000003, 3.19744231092045e-14, 5.1816, !- X,Y,Z Vertex 3 {m}
  -2.8421709430404e-14, 3.19744231092045e-14, 5.1816; !- X,Y,Z Vertex 4 {m}

OS:ThermalZone,
  {f10ac399-8d51-49b1-90f9-3a1d5e6ddef8}, !- Handle
  Zone StripMall Strip mall - type 1 A end_a - Story Ground, !- Name
  1,                                      !- Multiplier
  ,                                       !- Ceiling Height {m}
  ,                                       !- Volume {m3}
  ,                                       !- Floor Area {m2}
  ,                                       !- Zone Inside Convection Algorithm
  ,                                       !- Zone Outside Convection Algorithm
  ,                                       !- Zone Conditioning Equipment List Name
  {130821a5-43d9-4c0e-ad39-cd982a69c804}, !- Zone Air Inlet Port List
  {7b289f1f-d3a7-45ea-b294-2dab19467237}, !- Zone Air Exhaust Port List
  {21f31310-399d-4df0-87e9-67095eb35abf}, !- Zone Air Node Name
  {42b8305b-3674-4071-9afb-8a2b4059ff50}, !- Zone Return Air Port List
  ,                                       !- Primary Daylighting Control Name
  ,                                       !- Fraction of Zone Controlled by Primary Daylighting Control
  ,                                       !- Secondary Daylighting Control Name
  ,                                       !- Fraction of Zone Controlled by Secondary Daylighting Control
  ,                                       !- Illuminance Map Name
  {ef4f4906-a22c-483b-a9f1-5c75cf90165f}, !- Group Rendering Name
  {499d3fc7-1e7d-4d64-88c2-f167c8c85647}, !- Thermostat Name
  No;                                     !- Use Ideal Air Loads

OS:Node,
  {7f0ba7f4-c239-47ac-8855-b5ff41a35cbe}, !- Handle
  Zone StripMall Strip mall - type 1 A end_a - Story Ground Zone Air Node, !- Name
  {21f31310-399d-4df0-87e9-67095eb35abf}, !- Inlet Port
  ;                                       !- Outlet Port

OS:Connection,
  {21f31310-399d-4df0-87e9-67095eb35abf}, !- Handle
  {f10ac399-8d51-49b1-90f9-3a1d5e6ddef8}, !- Source Object
  11,                                     !- Outlet Port
  {7f0ba7f4-c239-47ac-8855-b5ff41a35cbe}, !- Target Object
  2;                                      !- Inlet Port

OS:PortList,
  {130821a5-43d9-4c0e-ad39-cd982a69c804}, !- Handle
  {f10ac399-8d51-49b1-90f9-3a1d5e6ddef8}, !- HVAC Component
  {d581682f-c1dd-4adf-b792-47161ec1d706}; !- Port 1

OS:PortList,
  {7b289f1f-d3a7-45ea-b294-2dab19467237}, !- Handle
  {f10ac399-8d51-49b1-90f9-3a1d5e6ddef8}; !- HVAC Component

OS:PortList,
  {42b8305b-3674-4071-9afb-8a2b4059ff50}, !- Handle
  {f10ac399-8d51-49b1-90f9-3a1d5e6ddef8}, !- HVAC Component
  {06a6df59-cdaf-42fd-9154-85ace0d2ffa3}; !- Port 1

OS:Sizing:Zone,
  {223a3326-5178-4be6-a3ef-3a55eae617d2}, !- Handle
  {f10ac399-8d51-49b1-90f9-3a1d5e6ddef8}, !- Zone or ZoneList Name
  SupplyAirTemperature,                   !- Zone Cooling Design Supply Air Temperature Input Method
  12.7777777777778,                       !- Zone Cooling Design Supply Air Temperature {C}
  11.11,                                  !- Zone Cooling Design Supply Air Temperature Difference {deltaC}
  SupplyAirTemperature,                   !- Zone Heating Design Supply Air Temperature Input Method
  50.0000000000001,                       !- Zone Heating Design Supply Air Temperature {C}
  11.11,                                  !- Zone Heating Design Supply Air Temperature Difference {deltaC}
  0.0085,                                 !- Zone Cooling Design Supply Air Humidity Ratio {kg-H2O/kg-air}
  0.008,                                  !- Zone Heating Design Supply Air Humidity Ratio {kg-H2O/kg-air}
  ,                                       !- Zone Heating Sizing Factor
  ,                                       !- Zone Cooling Sizing Factor
  DesignDay,                              !- Cooling Design Air Flow Method
  ,                                       !- Cooling Design Air Flow Rate {m3/s}
  ,                                       !- Cooling Minimum Air Flow per Zone Floor Area {m3/s-m2}
  ,                                       !- Cooling Minimum Air Flow {m3/s}
  ,                                       !- Cooling Minimum Air Flow Fraction
  DesignDay,                              !- Heating Design Air Flow Method
  ,                                       !- Heating Design Air Flow Rate {m3/s}
  ,                                       !- Heating Maximum Air Flow per Zone Floor Area {m3/s-m2}
  ,                                       !- Heating Maximum Air Flow {m3/s}
  ,                                       !- Heating Maximum Air Flow Fraction
  No,                                     !- Account for Dedicated Outdoor Air System
  NeutralSupplyAir,                       !- Dedicated Outdoor Air System Control Strategy
  autosize,                               !- Dedicated Outdoor Air Low Setpoint Temperature for Design {C}
  autosize,                               !- Dedicated Outdoor Air High Setpoint Temperature for Design {C}
  Sensible Load Only No Latent Load,      !- Zone Load Sizing Method
  HumidityRatioDifference,                !- Zone Latent Cooling Design Supply Air Humidity Ratio Input Method
  ,                                       !- Zone Dehumidification Design Supply Air Humidity Ratio {kgWater/kgDryAir}
  0.005,                                  !- Zone Cooling Design Supply Air Humidity Ratio Difference {kgWater/kgDryAir}
  HumidityRatioDifference,                !- Zone Latent Heating Design Supply Air Humidity Ratio Input Method
  ,                                       !- Zone Humidification Design Supply Air Humidity Ratio {kgWater/kgDryAir}
  0.005,                                  !- Zone Humidification Design Supply Air Humidity Ratio Difference {kgWater/kgDryAir}
  ,                                       !- Zone Humidistat Dehumidification Set Point Schedule Name
  ,                                       !- Zone Humidistat Humidification Set Point Schedule Name
  ,                                       !- Design Zone Air Distribution Effectiveness in Cooling Mode
  ,                                       !- Design Zone Air Distribution Effectiveness in Heating Mode
  ,                                       !- Design Zone Secondary Recirculation Fraction {dimensionless}
  0;                                      !- Design Minimum Zone Ventilation Efficiency {dimensionless}

OS:ZoneHVAC:EquipmentList,
  {bf6bfff9-f04e-4a37-b2a5-c1aa91ef76e3}, !- Handle
  Zone StripMall Strip mall - type 1 A end_a - Story Ground Zone HVAC Equipment List, !- Name
  {f10ac399-8d51-49b1-90f9-3a1d5e6ddef8}, !- Thermal Zone
  ,                                       !- Load Distribution Scheme
  {010972fe-9c89-45c9-b469-4818ac85947a}, !- Zone Equipment 1
  1,                                      !- Zone Equipment Cooling Sequence 1
  1,                                      !- Zone Equipment Heating or No-Load Sequence 1
  ,                                       !- Zone Equipment Sequential Cooling Fraction Schedule Name 1
  ;                                       !- Zone Equipment Sequential Heating Fraction Schedule Name 1

OS:Space,
  {f8c1343f-ac5a-45f9-8d99-15db88fc5c99}, !- Handle
  StripMall Strip mall - type 1 B end_a - Story Ground, !- Name
  {595caab2-0406-46a0-9ae9-f78554b2412a}, !- Space Type Name
  ,                                       !- Default Construction Set Name
  ,                                       !- Default Schedule Set Name
  -0,                                     !- Direction of Relative North {deg}
  16.2962294409468,                       !- X Origin {m}
  -20.8682294409468,                      !- Y Origin {m}
  0,                                      !- Z Origin {m}
  {9a7e7737-2385-44f6-aebc-25f79b3e10c2}, !- Building Story Name
  {e1266973-49e1-4f9e-ad86-bc8c738d522b}; !- Thermal Zone Name

OS:Surface,
  {3cdbd9a3-e12f-4350-88a5-68b62a45ea2b}, !- Handle
  Surface 7,                              !- Name
  Floor,                                  !- Surface Type
  {3d35f079-16d4-4504-98ec-9a0d2cf215ca}, !- Construction Name
  {f8c1343f-ac5a-45f9-8d99-15db88fc5c99}, !- Space Name
  GroundFCfactorMethod,                   !- Outside Boundary Condition
  ,                                       !- Outside Boundary Condition Object
  NoSun,                                  !- Sun Exposure
  NoWind,                                 !- Wind Exposure
  ,                                       !- View Factor to Ground
  ,                                       !- Number of Vertices
  -2.8421709430404e-14, 3.19744231092045e-14, 0, !- X,Y,Z Vertex 1 {m}
  -32.5924588818936, 3.19744231092045e-14, 0, !- X,Y,Z Vertex 2 {m}
  -32.5924588818936, 4.57200000000003, 0, !- X,Y,Z Vertex 3 {m}
  -2.8421709430404e-14, 4.57200000000003, 0; !- X,Y,Z Vertex 4 {m}

OS:Surface,