
OS:Version,
  {2d7c787f-4e09-4ace-9d89-40d50f0db80d}, !- Handle
  3.7.0;                                  !- Version Identifier

OS:RunPeriodControl:DaylightSavingTime,
  {e875d569-6573-483b-a01e-62b49e5e3ac7}, !- Handle
  2nd Sunday in March,                    !- Start Date
  1st Sunday in November;                 !- End Date

OS:YearDescription,
  {91ee87b2-82d6-4eeb-9c4f-5c59bf3f422f}, !- Handle
  2016,                                   !- Calendar Year
  ,                                       !- Day of Week for Start Day
  ;                                       !- Is Leap Year

OS:Timestep,
  {e8d0233c-565a-4756-9197-904a29c8d05f}, !- Handle
  4;                                      !- Number of Timesteps per Hour

OS:RunPeriod,
  {8160a7d5-a688-4aba-a4e8-d90277212d72}, !- Handle
  Run Period 1,                           !- Name
  1,                                      !- Begin Month
  1,                                      !- Begin Day of Month
  12,                                     !- End Month
  30,                                     !- End Day of Month
  ,                                       !- Use Weather File Holidays and Special Days
  ,                                       !- Use Weather File Daylight Saving Period
  ,                                       !- Apply Weekend Holiday Rule
  ,                                       !- Use Weather File Rain Indicators
  ,                                       !- Use Weather File Snow Indicators
  ;                                       !- Number of Times Runperiod to be Repeated

OS:Site,
  {a2172b26-092f-4e70-a529-aaa11f305085}, !- Handle
  Manassas Rgnl Davis_VA_USA,             !- Name
  38.72,                                  !- Latitude {deg}
  -77.5,                                  !- Longitude {deg}
  -5,                                     !- Time Zone {hr}
  59,                                     !- Elevation {m}
  City;                                   !- Terrain

OS:Site:WaterMainsTemperature,
  {813d2433-60ce-49d0-a37f-6a75958b220e}, !- Handle
  Correlation,                            !- Calculation Method
  ,                                       !- Temperature Schedule Name
  14.25,                                  !- Annual Average Outdoor Air Temperature {C}
  23.7;                                   !- Maximum Difference In Monthly Average Outdoor Air Temperatures {deltaC}

OS:SizingPeriod:DesignDay,
  {bb9a5710-976b-4784-8b0d-e0c3dcd1f9ef}, !- Handle
  Manassas Rgnl Davis Ann Clg .4% Condns DB=>MWB 1, !- Name
  33.9,                                   !- Maximum Dry-Bulb Temperature {C}
  11.6,                                   !- Daily Dry-Bulb Temperature Range {deltaC}
  100618,                                 !- Barometric Pressure {Pa}
  3.6,                                    !- Wind Speed {m/s}
  200,                                    !- Wind Direction {deg}
  0,                                      !- Sky Clearness
  No,                                     !- Rain Indicator
  No,                                     !- Snow Indicator
  21,                                     !- Day of Month
  7,                                      !- Month
  SummerDesignDay,                        !- Day Type
  No,                                     !- Daylight Saving Time Indicator
  Wetbulb,                                !- Humidity Condition Type
  ,                                       !- Humidity Condition Day Schedule Name
  23.4,                                   !- Wetbulb or DewPoint at Maximum Dry-Bulb {C}
  ,                                       !- Humidity Ratio at Maximum Dry-Bulb {kgWater/kgDryAir}
  ,                                       !- Enthalpy at Maximum Dry-Bulb {J/kg}
  DefaultMultipliers,                     !- Dry-Bulb Temperature Range Modifier Type
  ,                                       !- Dry-Bulb Temperature Range Modifier Day Schedule Name
  ASHRAETau,                              !- Solar Model Indicator
  ,                                       !- Beam Solar Day Schedule Name
  ,                                       !- Diffuse Solar Day Schedule Name
  0.456,                                  !- ASHRAE Clear Sky Optical Depth for Beam Irradiance {dimensionless}
  2.131;                                  !- ASHRAE Clear Sky Optical Depth for Diffuse Irradiance {dimensionless}

OS:SizingPeriod:DesignDay,
  {ac6e7524-86a6-4044-a957-7962f67394b3}, !- Handle
  Manassas Rgnl Davis Ann Clg .4% Condns WB=>MDB 1, !- Name
  31.5,                                   !- Maximum Dry-Bulb Temperature {C}
  11.6,                                   !- Daily Dry-Bulb Temperature Range {deltaC}
  100618,                                 !- Barometric Pressure {Pa}
  3.6,                                    !- Wind Speed {m/s}
  200,                                    !- Wind Direction {deg}
  0,                                      !- Sky Clearness
  No,                                     !- Rain Indicator
  No,                                     !- Snow Indicator
  21,                                     !- Day of Month
  7,                                      !- Month
  SummerDesignDay,                        !- Day Type
  No,                                     !- Daylight Saving Time Indicator
  Wetbulb,                                !- Humidity Condition Type
  ,                                       !- Humidity Condition Day Schedule Name
  25.1,                                   !- Wetbulb or DewPoint at Maximum Dry-Bulb {C}
  ,                                       !- Humidity Ratio at Maximum Dry-Bulb {kgWater/kgDryAir}
  ,                                       !- Enthalpy at Maximum Dry-Bulb {J/kg}
  DefaultMultipliers,                     !- Dry-Bulb Temperature Range Modifier Type
  ,                                       !- Dry-Bulb Temperature Range Modifier Day Schedule Name
  ASHRAETau,                              !- Solar Model Indicator
  ,                                       !- Beam Solar Day Schedule Name
  ,                                       !- Diffuse Solar Day Schedule Name
  0.456,                                  !- ASHRAE Clear Sky Optical Depth for Beam Irradiance {dimensionless}
  2.131;                                  !- ASHRAE Clear Sky Optical Depth for Diffuse Irradiance {dimensionless}

OS:SizingPeriod:DesignDay,
  {34cbcdda-1054-4919-929a-70f048fdad67}, !- Handle
  Manassas Rgnl Davis Ann Clg 1% Condns DB=>MWB 1, !- Name
  32.6,                                   !- Maximum Dry-Bulb Temperature {C}
  11.6,                                   !- Daily Dry-Bulb Temperature Range {deltaC}
  100618,                                 !- Barometric Pressure {Pa}
  3.6,                                    !- Wind Speed {m/s}
  200,                                    !- Wind Direction {deg}
  0,                                      !- Sky Clearness
  No,                                     !- Rain Indicator
  No,                                     !- Snow Indicator
  21,                                     !- Day of Month
  7,                                      !- Month
  SummerDesignDay,                        !- Day Type
  No,                                     !- Daylight Saving Time Indicator
  Wetbulb,                                !- Humidity Condition Type
  ,                                       !- Humidity Condition Day Schedule Name
  23.2,                                   !- Wetbulb or DewPoint at Maximum Dry-Bulb {C}
  ,                                       !- Humidity Ratio at Maximum Dry-Bulb {kgWater/kgDryAir}
  ,                                       !- Enthalpy at Maximum Dry-Bulb {J/kg}
  DefaultMultipliers,                     !- Dry-Bulb Temperature Range Modifier Type
  ,                                       !- Dry-Bulb Temperature Range Modifier Day Schedule Name
  ASHRAETau,                              !- Solar Model Indicator
  ,                                       !- Beam Solar Day Schedule Name
  ,                                       !- Diffuse Solar Day Schedule Name
  0.456,                                  !- ASHRAE Clear Sky Optical Depth for Beam Irradiance {dimensionless}
  2.131;                                  !- ASHRAE Clear Sky Optical Depth for Diffuse Irradiance {dimensionless}

OS:SizingPeriod:DesignDay,
  {20430ec5-4c3b-46b6-a17f-bce65419bfcd}, !- Handle
  Manassas Rgnl Davis Ann Clg 2% Condns DP=>MDB 1, !- Name
  27.1,                                   !- Maximum Dry-Bulb Temperature {C}
  11.6,                                   !- Daily Dry-Bulb Temperature Range {deltaC}
  100618,                                 !- Barometric Pressure {Pa}
  3.6,                                    !- Wind Speed {m/s}
  200,                                    !- Wind Direction {deg}
  0,                                      !- Sky Clearness
  No,                                     !- Rain Indicator
  No,                                     !- Snow Indicator
  21,                                     !- Day of Month
  7,                                      !- Month
  SummerDesignDay,                        !- Day Type
  No,                                     !- Daylight Saving Time Indicator
  Dewpoint,                               !- Humidity Condition Type
  ,                                       !- Humidity Condition Day Schedule Name
  22.1,                                   !- Wetbulb or DewPoint at Maximum Dry-Bulb {C}
  ,                                       !- Humidity Ratio at Maximum Dry-Bulb {kgWater/kgDryAir}
  ,                                       !- Enthalpy at Maximum Dry-Bulb {J/kg}
  DefaultMultipliers,                     !- Dry-Bulb Temperature Range Modifier Type
  ,                                       !- Dry-Bulb Temperature Range Modifier Day Schedule Name
  ASHRAETau,                              !- Solar Model Indicator
  ,                                       !- Beam Solar Day Schedule Name
  ,                                       !- Diffuse Solar Day Schedule Name
  0.456,                                  !- ASHRAE Clear Sky Optical Depth for Beam Irradiance {dimensionless}
  2.131;                                  !- ASHRAE Clear Sky Optical Depth for Diffuse Irradiance {dimensionless}

OS:SizingPeriod:DesignDay,
  {e85f7cad-c182-4c91-8d25-9aa6673967d5}, !- Handle
  Manassas Rgnl Davis Ann Htg 99% Condns DB 1, !- Name
  -8.7,                                   !- Maximum Dry-Bulb Temperature {C}
  0,                                      !- Daily Dry-Bulb Temperature Range {deltaC}
  100618,                                 !- Barometric Pressure {Pa}
  1.3,                                    !- Wind Speed {m/s}
  330,                                    !- Wind Direction {deg}
  0,                                      !- Sky Clearness
  No,                                     !- Rain Indicator
  No,                                     !- Snow Indicator
  21,                                     !- Day of Month
  1,                                      !- Month
  WinterDesignDay,                        !- Day Type
  No,                                     !- Daylight Saving Time Indicator
  Wetbulb,                                !- Humidity Condition Type
  ,                                       !- Humidity Condition Day Schedule Name
  -8.7,                                   !- Wetbulb or DewPoint at Maximum Dry-Bulb {C}
  ,                                       !- Humidity Ratio at Maximum Dry-Bulb {kgWater/kgDryAir}
  ,                                       !- Enthalpy at Maximum Dry-Bulb {J/kg}
  DefaultMultipliers,                     !- Dry-Bulb Temperature Range Modifier Type
  ,                                       !- Dry-Bulb Temperature Range Modifier Day Schedule Name
  ASHRAEClearSky;                         !- Solar Model Indicator

OS:SizingPeriod:DesignDay,
  {10ffd5c8-dc09-4e21-b99f-d925f7f76629}, !- Handle
  Manassas Rgnl Davis Ann Htg 99.6% Condns DB 1, !- Name
  -11.2,                                  !- Maximum Dry-Bulb Temperature {C}
  0,                                      !- Daily Dry-Bulb Temperature Range {deltaC}
  100618,                                 !- Barometric Pressure {Pa}
  1.3,                                    !- Wind Speed {m/s}
  330,                                    !- Wind Direction {deg}
  0,                                      !- Sky Clearness
  No,                                     !- Rain Indicator
  No,                                     !- Snow Indicator
  21,                                     !- Day of Month
  1,                                      !- Month
  WinterDesignDay,                        !- Day Type
  No,                                     !- Daylight Saving Time Indicator
  Wetbulb,                                !- Humidity Condition Type
  ,                                       !- Humidity Condition Day Schedule Name
  -11.2,                                  !- Wetbulb or DewPoint at Maximum Dry-Bulb {C}
  ,                                       !- Humidity Ratio at Maximum Dry-Bulb {kgWater/kgDryAir}
  ,                                       !- Enthalpy at Maximum Dry-Bulb {J/kg}
  DefaultMultipliers,                     !- Dry-Bulb Temperature Range Modifier Type
  ,                                       !- Dry-Bulb Temperature Range Modifier Day Schedule Name
  ASHRAEClearSky;                         !- Solar Model Indicator

OS:SizingPeriod:DesignDay,
  {2cb93e02-886c-439e-b973-3382cd1516a8}, !- Handle
  Manassas Rgnl Davis Ann Htg Wind 99% Condns WS=>MCDB 1, !- Name
  1.5,                                    !- Maximum Dry-Bulb Temperature {C}
  0,                                      !- Daily Dry-Bulb Temperature Range {deltaC}
  100618,                                 !- Barometric Pressure {Pa}
  10.6,                                   !- Wind Speed {m/s}
  330,                                    !- Wind Direction {deg}
  0,                                      !- Sky Clearness
  No,                                     !- Rain Indicator
  No,                                     !- Snow Indicator
  21,                                     !- Day of Month
  1,                                      !- Month
  WinterDesignDay,                        !- Day Type
  No,                                     !- Daylight Saving Time Indicator
  Wetbulb,                                !- Humidity Condition Type
  ,                                       !- Humidity Condition Day Schedule Name
  1.5,                                    !- Wetbulb or DewPoint at Maximum Dry-Bulb {C}
  ,                                       !- Humidity Ratio at Maximum Dry-Bulb {kgWater/kgDryAir}
  ,                                       !- Enthalpy at Maximum Dry-Bulb {J/kg}
  DefaultMultipliers,                     !- Dry-Bulb Temperature Range Modifier Type
  ,                                       !- Dry-Bulb Temperature Range Modifier Day Schedule Name
  ASHRAEClearSky;                         !- Solar Model Indicator

OS:SizingPeriod:DesignDay,
  {51e048fe-ec95-48e6-b272-c872bf1f932a}, !- Handle
  Manassas Rgnl Davis April .4% Condns DB=>MCWB 1, !- Name
  30.9,                                   !- Maximum Dry-Bulb Temperature {C}
  13.8,                                   !- Daily Dry-Bulb Temperature Range {deltaC}
  100618,                                 !- Barometric Pressure {Pa}
  3.6,                                    !- Wind Speed {m/s}
  200,                                    !- Wind Direction {deg}
  0,                                      !- Sky Clearness
  No,                                     !- Rain Indicator
  No,                                     !- Snow Indicator
  21,                                     !- Day of Month
  4,                                      !- Month
  SummerDesignDay,                        !- Day Type
  No,                                     !- Daylight Saving Time Indicator
  Wetbulb,                                !- Humidity Condition Type
  ,                                       !- Humidity Condition Day Schedule Name
  19,                                     !- Wetbulb or DewPoint at Maximum Dry-Bulb {C}
  ,                                       !- Humidity Ratio at Maximum Dry-Bulb {kgWater/kgDryAir}
  ,                                       !- Enthalpy at Maximum Dry-Bulb {J/kg}
  DefaultMultipliers,                     !- Dry-Bulb Temperature Range Modifier Type
  ,                                       !- Dry-Bulb Temperature Range Modifier Day Schedule Name
  ASHRAETau,                              !- Solar Model Indicator
  ,                                       !- Beam Solar Day Schedule Name
  ,                                       !- Diffuse Solar Day Schedule Name
  0.391,                                  !- ASHRAE Clear Sky Optical Depth for Beam Irradiance {dimensionless}
  2.29;                                   !- ASHRAE Clear Sky Optical Depth for Diffuse Irradiance {dimensionless}

OS:SizingPeriod:DesignDay,
  {6a3d9c84-9d42-41cf-8b75-8ce117a2b6b6}, !- Handle
  Manassas Rgnl Davis April .4% Condns WB=>MCDB 1, !- Name
  27.8,                                   !- Maximum Dry-Bulb Temperature {C}
  13.8,                                   !- Daily Dry-Bulb Temperature Range {deltaC}
  100618,                                 !- Barometric Pressure {Pa}
  3.6,                                    !- Wind Speed {m/s}
  200,                                    !- Wind Direction {deg}
  0,                                      !- Sky Clearness
  No,                                     !- Rain Indicator
  No,                                     !- Snow Indicator
  21,                                     !- Day of Month
  4,                                      !- Month
  SummerDesignDay,                        !- Day Type
  No,                                     !- Daylight Saving Time Indicator
  Wetbulb,                                !- Humidity Condition Type
  ,                                       !- Humidity Condition Day Schedule Name
  19.8,                                   !- Wetbulb or DewPoint at Maximum Dry-Bulb {C}
  ,                                       !- Humidity Ratio at Maximum Dry-Bulb {kgWater/kgDryAir}
  ,                                       !- Enthalpy at Maximum Dry-Bulb {J/kg}
  DefaultMultipliers,                     !- Dry-Bulb Temperature Range Modifier Type
  ,                                       !- Dry-Bulb Temperature Range Modifier Day Schedule Name
  ASHRAETau,                              !- Solar Model Indicator
  ,                                       !- Beam Solar Day Schedule Name
  ,                                       !- Diffuse Solar Day Schedule Name
  0.391,                                  !- ASHRAE Clear Sky Optical Depth for Beam Irradiance {dimensionless}
  2.29;                                   !- ASHRAE Clear Sky Optical Depth for Diffuse Irradiance {dimensionless}

OS:SizingPeriod:DesignDay,
  {b3cf5f94-ca39-4f89-b473-e11269f3069e}, !- Handle
  Manassas Rgnl Davis August .4% Condns DB=>MCWB 1, !- Name
  35.9,                                   !- Maximum Dry-Bulb Temperature {C}
  11.8,                                   !- Daily Dry-Bulb Temperature Range {deltaC}
  100618,                                 !- Barometric Pressure {Pa}
  3.6,                                    !- Wind Speed {m/s}
  200,                                    !- Wind Direction {deg}
  0,                                      !- Sky Clearness
  No,                                     !- Rain Indicator
  No,                                     !- Snow Indicator
  21,                                     !- Day of Month
  8,                                      !- Month
  SummerDesignDay,                        !- Day Type
  No,                                     !- Daylight Saving Time Indicator
  Wetbulb,                                !- Humidity Condition Type
  ,                                       !- Humidity Condition Day Schedule Name
  24.4,                                   !- Wetbulb or DewPoint at Maximum Dry-Bulb {C}
  ,                                       !- Humidity Ratio at Maximum Dry-Bulb {kgWater/kgDryAir}
  ,                                       !- Enthalpy at Maximum Dry-Bulb {J/kg}
  DefaultMultipliers,                     !- Dry-Bulb Temperature Range Modifier Type
  ,                                       !- Dry-Bulb Temperature Range Modifier Day Schedule Name
  ASHRAETau,                              !- Solar Model Indicator
  ,                                       !- Beam Solar Day Schedule Name
  ,                                       !- Diffuse Solar Day Schedule Name
  0.442,                                  !- ASHRAE Clear Sky Optical Depth for Beam Irradiance {dimensionless}
  2.192;                                  !- ASHRAE Clear Sky Optical Depth for Diffuse Irradiance {dimensionless}

OS:SizingPeriod:DesignDay,
  {0d13edff-4acb-4cef-a14b-c0242cd6a44e}, !- Handle
  Manassas Rgnl Davis August .4% Condns WB=>MCDB 1, !- Name
  33.2,                                   !- Maximum Dry-Bulb Temperature {C}
  11.8,                                   !- Daily Dry-Bulb Temperature Range {deltaC}
  100618,                                 !- Barometric Pressure {Pa}
  3.6,                                    !- Wind Speed {m/s}
  200,                                    !- Wind Direction {deg}
  0,                                      !- Sky Clearness
  No,                                     !- Rain Indicator
  No,                                     !- Snow Indicator
  21,                                     !- Day of Month
  8,                                      !- Month
  SummerDesignDay,                        !- Day Type
  No,                                     !- Daylight Saving Time Indicator
  Wetbulb,                                !- Humidity Condition Type
  ,                                       !- Humidity Condition Day Schedule Name
  26.2,                                   !- Wetbulb or DewPoint at Maximum Dry-Bulb {C}
  ,                                       !- Humidity Ratio at Maximum Dry-Bulb {kgWater/kgDryAir}
  ,                                       !- Enthalpy at Maximum Dry-Bulb {J/kg}
  DefaultMultipliers,                     !- Dry-Bulb Temperature Range Modifier Type
  ,                                       !- Dry-Bulb Temperature Range Modifier Day Schedule Name
  ASHRAETau,                              !- Solar Model Indicator
  ,                                       !- Beam Solar Day Schedule Name
  ,                                       !- Diffuse Solar Day Schedule Name
  0.442,                                  !- ASHRAE Clear Sky Optical Depth for Beam Irradiance {dimensionless}
  2.192;                                  !- ASHRAE Clear Sky Optical Depth for Diffuse Irradiance {dimensionless}

OS:SizingPeriod:DesignDay,
  {4cad85e4-0e3a-4e1a-8de6-62f561ad3529}, !- Handle
  Manassas Rgnl Davis December .4% Condns DB=>MCWB 1, !- Name
  21,                                     !- Maximum Dry-Bulb Temperature {C}
  10.5,                                   !- Daily Dry-Bulb Temperature Range {deltaC}
  100618,                                 !- Barometric Pressure {Pa}
  3.6,                                    !- Wind Speed {m/s}
  200,                                    !- Wind Direction {deg}
  0,                                      !- Sky Clearness
  No,                                     !- Rain Indicator
  No,                                     !- Snow Indicator
  21,                                     !- Day of Month
  12,                                     !- Month
  SummerDesignDay,                        !- Day Type
  No,                                     !- Daylight Saving Time Indicator
  Wetbulb,                                !- Humidity Condition Type
  ,                                       !- Humidity Condition Day Schedule Name
  14.5,                                   !- Wetbulb or DewPoint at Maximum Dry-Bulb {C}
  ,                                       !- Humidity Ratio at Maximum Dry-Bulb {kgWater/kgDryAir}
  ,                                       !- Enthalpy at Maximum Dry-Bulb {J/kg}
  DefaultMultipliers,                     !- Dry-Bulb Temperature Range Modifier Type
  ,                                       !- Dry-Bulb Temperature Range Modifier Day Schedule Name
  ASHRAETau,                              !- Solar Model Indicator
  ,                                       !- Beam Solar Day Schedule Name
  ,                                       !- Diffuse Solar Day Schedule Name
  0.299,                                  !- ASHRAE Clear Sky Optical Depth for Beam Irradiance {dimensionless}
  2.614;                                  !- ASHRAE Clear Sky Optical Depth for Diffuse Irradiance {dimensionless}

OS:SizingPeriod:DesignDay,
  {c1b9b23c-007d-49b1-9d24-9f0c779b4eaf}, !- Handle
  Manassas Rgnl Davis December .4% Condns WB=>MCDB 1, !- Name
  19.3,                                   !- Maximum Dry-Bulb Temperature {C}
  10.5,                                   !- Daily Dry-Bulb Temperature Range {deltaC}
  100618,                                 !- Barometric Pressure {Pa}
  3.6,                                    !- Wind Speed {m/s}
  200,                                    !- Wind Direction {deg}
  0,                                      !- Sky Clearness
  No,                                     !- Rain Indicator
  No,                                     !- Snow Indicator
  21,                                     !- Day of Month
  12,                                     !- Month
  SummerDesignDay,                        !- Day Type
  No,                                     !- Daylight Saving Time Indicator
  Wetbulb,                                !- Humidity Condition Type
  ,                                       !- Humidity Condition Day Schedule Name
  16,                                     !- Wetbulb or DewPoint at Maximum Dry-Bulb {C}
  ,                                       !- Humidity Ratio at Maximum Dry-Bulb {kgWater/kgDryAir}
  ,                                       !- Enthalpy at Maximum Dry-Bulb {J/kg}
  DefaultMultipliers,                     !- Dry-Bulb Temperature Range Modifier Type
  ,                                       !- Dry-Bulb Temperature Range Modifier Day Schedule Name
  ASHRAETau,                              !- Solar Model Indicator
  ,                                       !- Beam Solar Day Schedule Name
  ,                                       !- Diffuse Solar Day Schedule Name
  0.299,                                  !- ASHRAE Clear Sky Optical Depth for Beam Irradiance {dimensionless}
  2.614;                                  !- ASHRAE Clear Sky Optical Depth for Diffuse Irradiance {dimensionless}

OS:SizingPeriod:DesignDay,
  {bd0908c2-c68e-465c-aae6-2426118b4b64}, !- Handle
  Manassas Rgnl Davis February .4% Condns DB=>MCWB 1, !- Name
  20.9,                                   !- Maximum Dry-Bulb Temperature {C}
  11.3,                                   !- Daily Dry-Bulb Temperature Range {deltaC}
  100618,                                 !- Barometric Pressure {Pa}
  3.6,                                    !- Wind Speed {m/s}
  200,                                    !- Wind Direction {deg}
  0,                                      !- Sky Clearness
  No,                                     !- Rain Indicator
  No,                                     !- Snow Indicator
  21,                                     !- Day of Month
  2,                                      !- Month
  SummerDesignDay,                        !- Day Type
  No,                                     !- Daylight Saving Time Indicator
  Wetbulb,                                !- Humidity Condition Type
  ,                                       !- Humidity Condition Day Schedule Name
  13.4,                                   !- Wetbulb or DewPoint at Maximum Dry-Bulb {C}
  ,                                       !- Humidity Ratio at Maximum Dry-Bulb {kgWater/kgDryAir}
  ,                                       !- Enthalpy at Maximum Dry-Bulb {J/kg}
  DefaultMultipliers,                     !- Dry-Bulb Temperature Range Modifier Type
  ,                                       !- Dry-Bulb Temperature Range Modifier Day Schedule Name
  ASHRAETau,                              !- Solar Model Indicator
  ,                                       !- Beam Solar Day Schedule Name
  ,                                       !- Diffuse Solar Day Schedule Name
  0.335,                                  !- ASHRAE Clear Sky Optical Depth for Beam Irradiance {dimensionless}
  2.456;                                  !- ASHRAE Clear Sky Optical Depth for Diffuse Irradiance {dimensionless}

OS:SizingPeriod:DesignDay,
  {7df61e81-0332-4a2c-9c98-10e1f9731a2b}, !- Handle
  Manassas Rgnl Davis February .4% Condns WB=>MCDB 1, !- Name
  19,                                     !- Maximum Dry-Bulb Temperature {C}
  11.3,                                   !- Daily Dry-Bulb Temperature Range {deltaC}
  100618,                                 !- Barometric Pressure {Pa}
  3.6,                                    !- Wind Speed {m/s}
  200,                                    !- Wind Direction {deg}
  0,                                      !- Sky Clearness
  No,                                     !- Rain Indicator
  No,                                     !- Snow Indicator
  21,                                     !- Day of Month
  2,                                      !- Month
  SummerDesignDay,                        !- Day Type
  No,                                     !- Daylight Saving Time Indicator
  Wetbulb,                                !- Humidity Condition Type
  ,                                       !- Humidity Condition Day Schedule Name