
OS:Version,
  {964852fd-87bc-4fc2-b939-6d0f2659fcdd}, !- Handle
  3.6.1;                                  !- Version Identifier

OS:Facility,
  {5b68aba0-87f3-4343-b69c-1d43091333c5}; !- Handle

OS:Site,
  {20ca9c11-e59d-4ca1-95db-c77bc12ac0f3}, !- Handle
  Chicago Ohare Intl Ap,                  !- Name
  41.98,                                  !- Latitude {deg}
  -87.92,                                 !- Longitude {deg}
  -6,                                     !- Time Zone {hr}
  201,                                    !- Elevation {m}
  City;                                   !- Terrain

OS:SimulationControl,
  {75044393-3800-4f28-8136-ad8efeef9827}, !- Handle
  ,                                       !- Do Zone Sizing Calculation
  ,                                       !- Do System Sizing Calculation
  ,                                       !- Do Plant Sizing Calculation
  No,                                     !- Run Simulation for Sizing Periods
  Yes,                                    !- Run Simulation for Weather File Run Periods
  ,                                       !- Loads Convergence Tolerance Value {W}
  ,                                       !- Temperature Convergence Tolerance Value {deltaC}
  ,                                       !- Solar Distribution
  ,                                       !- Maximum Number of Warmup Days
  ,                                       !- Minimum Number of Warmup Days
  No,                                     !- Do HVAC Sizing Simulation for Sizing Periods
  1;                                      !- Maximum Number of HVAC Sizing Simulation Passes

OS:Sizing:Parameters,
  {e4057f60-94f8-425c-ae89-d2b2c4dc441c}, !- Handle
  1.25,                                   !- Heating Sizing Factor
  1.15;                                   !- Cooling Sizing Factor

OS:Timestep,
  {1ee99bcd-3023-4f95-8dea-b87d407d4299}, !- Handle
  4;                                      !- Number of Timesteps per Hour

OS:ShadowCalculation,
  {8fbece12-c3d9-4de7-9275-08db696f363c}, !- Handle
  PolygonClipping,                        !- Shading Calculation Method
  ,                                       !- Shading Calculation Update Frequency Method
  20,                                     !- Shading Calculation Update Frequency
  15000,                                  !- Maximum Figures in Shadow Overlap Calculations
  ,                                       !- Polygon Clipping Algorithm
  512,                                    !- Pixel Counting Resolution
  ,                                       !- Sky Diffuse Modeling Algorithm
  No,                                     !- Output External Shading Calculation Results
  No,                                     !- Disable Self-Shading Within Shading Zone Groups
  No;                                     !- Disable Self-Shading From Shading Zone Groups to Other Zones

OS:HeatBalanceAlgorithm,
  {0dce4a7c-87e1-41e7-99be-833010184eea}, !- Handle
  ConductionTransferFunction,             !- Algorithm
  200;                                    !- Surface Temperature Upper Limit {C}

OS:RunPeriod,
  {7361f122-2c03-4a4b-a8b8-f07ec2cda376}, !- Handle
  Run Period 1,                           !- Name
  1,                                      !- Begin Month
  1,                                      !- Begin Day of Month
  12,                                     !- End Month
  31,                                     !- End Day of Month
  ,                                       !- Use Weather File Holidays and Special Days
  ,                                       !- Use Weather File Daylight Saving Period
  ,                                       !- Apply Weekend Holiday Rule
  ,                                       !- Use Weather File Rain Indicators
  ,                                       !- Use Weather File Snow Indicators
  ;                                       !- Number of Times Runperiod to be Repeated

OS:LifeCycleCost:Parameters,
  {7a4b7ac1-6c69-490c-ae9d-1e2f6b8a46b5}, !- Handle
  ,                                       !- Analysis Type
  ,                                       !- Discounting Convention
  ,                                       !- Inflation Approach
  ,                                       !- Real Discount Rate
  ,                                       !- Nominal Discount Rate
  ,                                       !- Inflation
  ,                                       !- Base Date Month
  ,                                       !- Base Date Year
  ,                                       !- Service Date Month
  ,                                       !- Service Date Year
  ;                                       !- Length of Study Period in Years

OS:Site:WaterMainsTemperature,
  {e60d031c-5e8d-4a02-b236-4d33bcf39017}, !- Handle
  Correlation,                            !- Calculation Method
  ,                                       !- Temperature Schedule Name
  11.2966666666667,                       !- Annual Average Outdoor Air Temperature {C}
  28.12;                                  !- Maximum Difference In Monthly Average Outdoor Air Temperatures {deltaC}

OS:ClimateZones,
  {0bc19292-7f28-4d14-8bf9-d4568d73f399}, !- Handle
  ASHRAE,                                 !- Climate Zone Institution Name 1
  ANSI/ASHRAE Standard 169,               !- Climate Zone Document Name 1
  2006,                                   !- Climate Zone Document Year 1
  ASHRAE 169-2013-5A,                     !- Climate Zone Value 1
  CEC,                                    !- Climate Zone Institution Name 2
  California Climate Zone Descriptions,   !- Climate Zone Document Name 2
  1995,                                   !- Climate Zone Document Year 2
  ;                                       !- Climate Zone Value 2

OS:Building,
  {e79a7d3a-0364-488b-b488-b18430ddb02e}, !- Handle
  ComStock DOE Ref 1980-2004|SmallOffice, !- Name
  ,                                       !- Building Sector Type
  225,                                    !- North Axis {deg}
  ,                                       !- Nominal Floor to Floor Height {m}
  ,                                       !- Space Type Name
  {8a48f750-d84e-47c1-8fa0-820ffea1136f}, !- Default Construction Set Name
  {ce1fb0ec-1e72-4233-99cc-4f9fc211f4a8}, !- Default Schedule Set Name
  ,                                       !- Standards Number of Stories
  ,                                       !- Standards Number of Above Ground Stories
  ,                                       !- Standards Template
  Office;                                 !- Standards Building Type

OS:AdditionalProperties,
  {62bc2194-a70f-4928-b966-c3e5535be036}, !- Handle
  {e79a7d3a-0364-488b-b488-b18430ddb02e}, !- Object Name
  grid_region,                            !- Feature Name 1
  String,                                 !- Feature Data Type 1
  SRMWc,                                  !- Feature Value 1
  hvac_system_type,                       !- Feature Name 2
  String,                                 !- Feature Data Type 2
  PVAV with gas boiler reheat,            !- Feature Value 2
  wall_as_constructed_template,           !- Feature Name 3
  String,                                 !- Feature Data Type 3
  ComStock DOE Ref 1980-2004,             !- Feature Value 3
  wall_template,                          !- Feature Name 4
  String,                                 !- Feature Data Type 4
  ComStock DOE Ref 1980-2004,             !- Feature Value 4
  roof_as_constructed_template,           !- Feature Name 5
  String,                                 !- Feature Data Type 5
  ComStock DOE Ref 1980-2004,             !- Feature Value 5
  roof_template,                          !- Feature Name 6
  String,                                 !- Feature Data Type 6
  ComStock DOE Ref 1980-2004,             !- Feature Value 6
  exterior_lighting_as_constructed_template, !- Feature Name 7
  String,                                 !- Feature Data Type 7
  ComStock DOE Ref 1980-2004,             !- Feature Value 7
  exterior_lighting_template,             !- Feature Name 8
  String,                                 !- Feature Data Type 8
  ComStock 90.1-2004,                     !- Feature Value 8
  interior_equipment_as_constructed_template, !- Feature Name 9
  String,                                 !- Feature Data Type 9
  ComStock DOE Ref 1980-2004,             !- Feature Value 9
  interior_equipment_template,            !- Feature Name 10
  String,                                 !- Feature Data Type 10
  ComStock DOE Ref 1980-2004,             !- Feature Value 10
  service_water_heating_as_constructed_template, !- Feature Name 11
  String,                                 !- Feature Data Type 11
  ComStock DOE Ref 1980-2004,             !- Feature Value 11
  service_water_heating_template,         !- Feature Name 12
  String,                                 !- Feature Data Type 12
  ComStock DOE Ref 1980-2004,             !- Feature Value 12
  hvac_as_constructed_template,           !- Feature Name 13
  String,                                 !- Feature Data Type 13
  ComStock DOE Ref 1980-2004,             !- Feature Value 13
  hvac_template,                          !- Feature Name 14
  String,                                 !- Feature Data Type 14
  ComStock 90.1-2013;                     !- Feature Value 14

OS:SpaceType,
  {61f8836d-e4e2-4428-8a6b-7adf8b98c70b}, !- Handle
  Office WholeBuilding - Sm Office - ComStock DOE Ref 1980-2004, !- Name
  ,                                       !- Default Construction Set Name
  {9738d7cf-bf88-419f-b56f-c09cff9025be}, !- Default Schedule Set Name
  {67597651-7c60-4ad8-be0c-1e3f0a67c4f1}, !- Group Rendering Name
  {54815fa6-098c-4491-acac-e993f2cd531a}, !- Design Specification Outdoor Air Object Name
  ,                                       !- Standards Template
  Office,                                 !- Standards Building Type
  WholeBuilding - Sm Office;              !- Standards Space Type

OS:Rendering:Color,
  {67597651-7c60-4ad8-be0c-1e3f0a67c4f1}, !- Handle
  Office WholeBuilding - Sm Office,       !- Name
  120,                                    !- Rendering Red Value
  230,                                    !- Rendering Green Value
  199;                                    !- Rendering Blue Value

OS:BuildingStory,
  {792b4c1c-c170-48e6-84a8-55732fb2a0bc}, !- Handle
  Story Ground,                           !- Name
  0,                                      !- Nominal Z Coordinate {m}
  3.048,                                  !- Nominal Floor to Floor Height {m}
  ,                                       !- Default Construction Set Name
  ,                                       !- Default Schedule Set Name
  ;                                       !- Group Rendering Name

OS:Space,
  {9aca2827-09a0-48aa-9ae3-03e987fb89e9}, !- Handle
  Office WholeBuilding - Sm Office  - Story Ground, !- Name
  {61f8836d-e4e2-4428-8a6b-7adf8b98c70b}, !- Space Type Name
  ,                                       !- Default Construction Set Name
  ,                                       !- Default Schedule Set Name
  -0,                                     !- Direction of Relative North {deg}
  -14.4579334622898,                      !- X Origin {m}
  -4.81931115409661,                      !- Y Origin {m}
  0,                                      !- Z Origin {m}
  {792b4c1c-c170-48e6-84a8-55732fb2a0bc}, !- Building Story Name
  {ef0878ef-cb45-43d0-8e59-ce459808100d}; !- Thermal Zone Name

OS:Surface,
  {38185a80-63b1-441a-9085-3a78b4d0d1f8}, !- Handle
  Surface 1,                              !- Name
  Floor,                                  !- Surface Type
  {5cab8425-4a7c-4511-8d04-0329c423805e}, !- Construction Name
  {9aca2827-09a0-48aa-9ae3-03e987fb89e9}, !- Space Name
  GroundFCfactorMethod,                   !- Outside Boundary Condition
  ,                                       !- Outside Boundary Condition Object
  NoSun,                                  !- Sun Exposure
  NoWind,                                 !- Wind Exposure
  ,                                       !- View Factor to Ground
  ,                                       !- Number of Vertices
  3.01980662698043e-14, 8.88178419700125e-16, 0, !- X,Y,Z Vertex 1 {m}
  3.01980662698043e-14, 9.63862230819322, 0, !- X,Y,Z Vertex 2 {m}
  28.9158669245796, 9.63862230819322, 0,  !- X,Y,Z Vertex 3 {m}
  28.9158669245796, 8.88178419700125e-16, 0; !- X,Y,Z Vertex 4 {m}

OS:Surface,
  {c7adbcc5-35e6-431f-b2a6-35bc9f69c49c}, !- Handle
  Surface 2,                              !- Name
  Wall,                                   !- Surface Type
  ,                                       !- Construction Name
  {9aca2827-09a0-48aa-9ae3-03e987fb89e9}, !- Space Name
  Outdoors,                               !- Outside Boundary Condition
  ,                                       !- Outside Boundary Condition Object
  SunExposed,                             !- Sun Exposure
  WindExposed,                            !- Wind Exposure
  ,                                       !- View Factor to Ground
  ,                                       !- Number of Vertices
  3.01980662698043e-14, 9.63862230819322, 3.048, !- X,Y,Z Vertex 1 {m}
  3.01980662698043e-14, 9.63862230819322, 0, !- X,Y,Z Vertex 2 {m}
  3.01980662698043e-14, 8.88178419700125e-16, 0, !- X,Y,Z Vertex 3 {m}
  3.01980662698043e-14, 8.88178419700125e-16, 3.048; !- X,Y,Z Vertex 4 {m}

OS:Surface,
  {5061d694-fa96-45e1-886e-c08015e58aa6}, !- Handle
  Surface 3,                              !- Name
  Wall,                                   !- Surface Type
  ,                                       !- Construction Name
  {9aca2827-09a0-48aa-9ae3-03e987fb89e9}, !- Space Name
  Outdoors,                               !- Outside Boundary Condition
  ,                                       !- Outside Boundary Condition Object
  SunExposed,                             !- Sun Exposure
  WindExposed,                            !- Wind Exposure
  ,                                       !- View Factor to Ground
  ,                                       !- Number of Vertices
  28.9158669245796, 9.63862230819322, 3.048, !- X,Y,Z Vertex 1 {m}
  28.9158669245796, 9.63862230819322, 0,  !- X,Y,Z Vertex 2 {m}
  3.01980662698043e-14, 9.63862230819322, 0, !- X,Y,Z Vertex 3 {m}
  3.01980662698043e-14, 9.63862230819322, 3.048; !- X,Y,Z Vertex 4 {m}

OS:Surface,
  {e2b71f97-16b9-4002-9178-0d2e59996dcf}, !- Handle
  Surface 4,                              !- Name
  Wall,                                   !- Surface Type
  ,                                       !- Construction Name
  {9aca2827-09a0-48aa-9ae3-03e987fb89e9}, !- Space Name
  Outdoors,                               !- Outside Boundary Condition
  ,                                       !- Outside Boundary Condition Object
  SunExposed,                             !- Sun Exposure
  WindExposed,                            !- Wind Exposure
  ,                                       !- View Factor to Ground
  ,                                       !- Number of Vertices
  28.9158669245796, 8.88178419700125e-16, 3.048, !- X,Y,Z Vertex 1 {m}
  28.9158669245796, 8.88178419700125e-16, 0, !- X,Y,Z Vertex 2 {m}
  28.9158669245796, 9.63862230819322, 0,  !- X,Y,Z Vertex 3 {m}
  28.9158669245796, 9.63862230819322, 3.048; !- X,Y,Z Vertex 4 {m}

OS:Surface,
  {760bf8ac-19c6-464b-8bb5-3c2b17837386}, !- Handle
  Surface 5,                              !- Name
  Wall,                                   !- Surface Type
  ,                                       !- Construction Name
  {9aca2827-09a0-48aa-9ae3-03e987fb89e9}, !- Space Name
  Outdoors,                               !- Outside Boundary Condition
  ,                                       !- Outside Boundary Condition Object
  SunExposed,                             !- Sun Exposure
  WindExposed,                            !- Wind Exposure
  ,                                       !- View Factor to Ground
  ,                                       !- Number of Vertices
  3.01980662698043e-14, 8.88178419700125e-16, 3.048, !- X,Y,Z Vertex 1 {m}
  3.01980662698043e-14, 8.88178419700125e-16, 0, !- X,Y,Z Vertex 2 {m}
  28.9158669245796, 8.88178419700125e-16, 0, !- X,Y,Z Vertex 3 {m}
  28.9158669245796, 8.88178419700125e-16, 3.048; !- X,Y,Z Vertex 4 {m}

OS:Surface,
  {43eb1d18-ad9b-480c-ac42-8638caaa2c3a}, !- Handle
  Surface 6,                              !- Name
  RoofCeiling,                            !- Surface Type
  ,                                       !- Construction Name
  {9aca2827-09a0-48aa-9ae3-03e987fb89e9}, !- Space Name
  Outdoors,                               !- Outside Boundary Condition
  ,                                       !- Outside Boundary Condition Object
  SunExposed,                             !- Sun Exposure
  WindExposed,                            !- Wind Exposure
  ,                                       !- View Factor to Ground
  ,                                       !- Number of Vertices
  28.9158669245796, 8.88178419700125e-16, 3.048, !- X,Y,Z Vertex 1 {m}
  28.9158669245796, 9.63862230819322, 3.048, !- X,Y,Z Vertex 2 {m}
  3.01980662698043e-14, 9.63862230819322, 3.048, !- X,Y,Z Vertex 3 {m}
  3.01980662698043e-14, 8.88178419700125e-16, 3.048; !- X,Y,Z Vertex 4 {m}

OS:ThermalZone,
  {ef0878ef-cb45-43d0-8e59-ce459808100d}, !- Handle
  Zone Office WholeBuilding - Sm Office  - Story Ground, !- Name
  1,                                      !- Multiplier
  ,                                       !- Ceiling Height {m}
  ,                                       !- Volume {m3}
  ,                                       !- Floor Area {m2}
  ,                                       !- Zone Inside Convection Algorithm
  ,                                       !- Zone Outside Convection Algorithm
  ,                                       !- Zone Conditioning Equipment List Name
  {5fb33d44-0815-4b70-bfcf-bac23b3f522b}, !- Zone Air Inlet Port List
  {7cbfbefa-8e7a-4102-99f5-a8c6ad496776}, !- Zone Air Exhaust Port List
  {a7ead8fc-b595-488a-8ee0-204b4db0e9b9}, !- Zone Air Node Name
  {a603bcc2-81d8-44c0-a4bd-41b4aa7466ad}, !- Zone Return Air Port List
  ,                                       !- Primary Daylighting Control Name
  ,                                       !- Fraction of Zone Controlled by Primary Daylighting Control
  ,                                       !- Secondary Daylighting Control Name
  ,                                       !- Fraction of Zone Controlled by Secondary Daylighting Control
  ,                                       !- Illuminance Map Name
  ,                                       !- Group Rendering Name
  {78ba1ef8-1c9d-49ac-9e7c-8d9c9131f587}, !- Thermostat Name
  No;                                     !- Use Ideal Air Loads

OS:Node,
  {8b152315-4f00-4279-be1b-7db85d04f35d}, !- Handle
  Zone Office WholeBuilding - Sm Office  - Story Ground Zone Air Node, !- Name
  {a7ead8fc-b595-488a-8ee0-204b4db0e9b9}, !- Inlet Port
  ;                                       !- Outlet Port

OS:Connection,
  {a7ead8fc-b595-488a-8ee0-204b4db0e9b9}, !- Handle
  {ef0878ef-cb45-43d0-8e59-ce459808100d}, !- Source Object
  11,                                     !- Outlet Port
  {8b152315-4f00-4279-be1b-7db85d04f35d}, !- Target Object
  2;                                      !- Inlet Port

OS:PortList,
  {5fb33d44-0815-4b70-bfcf-bac23b3f522b}, !- Handle
  {ef0878ef-cb45-43d0-8e59-ce459808100d}, !- HVAC Component
  {e477a0cb-675a-43e5-b959-0ced70335b12}; !- Port 1

OS:PortList,
  {7cbfbefa-8e7a-4102-99f5-a8c6ad496776}, !- Handle
  {ef0878ef-cb45-43d0-8e59-ce459808100d}; !- HVAC Component

OS:PortList,
  {a603bcc2-81d8-44c0-a4bd-41b4aa7466ad}, !- Handle
  {ef0878ef-cb45-43d0-8e59-ce459808100d}, !- HVAC Component
  {59918b4d-81ec-4a92-b472-dfb8349e19ea}; !- Port 1

OS:Sizing:Zone,
  {9fae0d40-2e71-4b9f-bbea-9c705a182036}, !- Handle
  {ef0878ef-cb45-43d0-8e59-ce459808100d}, !- Zone or ZoneList Name
  SupplyAirTemperature,                   !- Zone Cooling Design Supply Air Temperature Input Method
  12.7777777777778,                       !- Zone Cooling Design Supply Air Temperature {C}
  11.11,                                  !- Zone Cooling Design Supply Air Temperature Difference {deltaC}
  SupplyAirTemperature,                   !- Zone Heating Design Supply Air Temperature Input Method
  50.0000000000001,                       !- Zone Heating Design Supply Air Temperature {C}
  11.11,                                  !- Zone Heating Design Supply Air Temperature Difference {deltaC}
  0.0085,                                 !- Zone Cooling Design Supply Air Humidity Ratio {kg-H2O/kg-air}
  0.008,                                  !- Zone Heating Design Supply Air Humidity Ratio {kg-H2O/kg-air}
  ,                                       !- Zone Heating Sizing Factor
  ,                                       !- Zone Cooling Sizing Factor
  DesignDay,                              !- Cooling Design Air Flow Method
  ,                                       !- Cooling Design Air Flow Rate {m3/s}
  ,                                       !- Cooling Minimum Air Flow per Zone Floor Area {m3/s-m2}
  ,                                       !- Cooling Minimum Air Flow {m3/s}
  ,                                       !- Cooling Minimum Air Flow Fraction
  DesignDay,                              !- Heating Design Air Flow Method
  ,                                       !- Heating Design Air Flow Rate {m3/s}
  ,                                       !- Heating Maximum Air Flow per Zone Floor Area {m3/s-m2}
  ,                                       !- Heating Maximum Air Flow {m3/s}
  ,                                       !- Heating Maximum Air Flow Fraction
  No,                                     !- Account for Dedicated Outdoor Air System
  NeutralSupplyAir,                       !- Dedicated Outdoor Air System Control Strategy
  autosize,                               !- Dedicated Outdoor Air Low Setpoint Temperature for Design {C}
  autosize,                               !- Dedicated Outdoor Air High Setpoint Temperature for Design {C}
  Sensible Load Only No Latent Load,      !- Zone Load Sizing Method
  HumidityRatioDifference,                !- Zone Latent Cooling Design Supply Air Humidity Ratio Input Method
  ,                                       !- Zone Dehumidification Design Supply Air Humidity Ratio {kgWater/kgDryAir}
  0.005,                                  !- Zone Cooling Design Supply Air Humidity Ratio Difference {kgWater/kgDryAir}
  HumidityRatioDifference,                !- Zone Latent Heating Design Supply Air Humidity Ratio Input Method
  ,                                       !- Zone Humidification Design Supply Air Humidity Ratio {kgWater/kgDryAir}
  0.005,                                  !- Zone Humidification Design Supply Air Humidity Ratio Difference {kgWater/kgDryAir}
  ,                                       !- Zone Humidistat Dehumidification Set Point Schedule Name
  ,                                       !- Zone Humidistat Humidification Set Point Schedule Name
  ,                                       !- Design Zone Air Distribution Effectiveness in Cooling Mode
  ,                                       !- Design Zone Air Distribution Effectiveness in Heating Mode
  ,                                       !- Design Zone Secondary Recirculation Fraction {dimensionless}
  0;                                      !- Design Minimum Zone Ventilation Efficiency {dimensionless}

OS:ZoneHVAC:EquipmentList,
  {56b907aa-cf9e-40e3-ac0c-6895f4125d65}, !- Handle
  Zone Office WholeBuilding - Sm Office  - Story Ground Zone HVAC Equipment List, !- Name
  {ef0878ef-cb45-43d0-8e59-ce459808100d}, !- Thermal Zone
  ,                                       !- Load Distribution Scheme
  {d8386b34-2af1-4e7a-ad7b-fdbec8ba3ca6}, !- Zone Equipment 1
  1,                                      !- Zone Equipment Cooling Sequence 1
  1,                                      !- Zone Equipment Heating or No-Load Sequence 1
  ,                                       !- Zone Equipment Sequential Cooling Fraction Schedule Name 1
  ;                                       !- Zone Equipment Sequential Heating Fraction Schedule Name 1

OS:SubSurface,
  {a2e92cf7-df6b-404a-aadc-45e4cc46a568}, !- Handle
  Sub Surface 1,                          !- Name
  FixedWindow,                            !- Sub Surface Type
  {9e2f3fb2-6058-4975-8c94-a2f0d7fcf221}, !- Construction Name
  {c7adbcc5-35e6-431f-b2a6-35bc9f69c49c}, !- Surface Name
  ,                                       !- Outside Boundary Condition Object
  ,                                       !- View Factor to Ground
  ,                                       !- Frame and Divider Name
  ,                                       !- Multiplier
  ,                                       !- Number of Vertices
  3.01980662698043e-14, 9.61322230819322, 0.945848969146629, !- X,Y,Z Vertex 1 {m}
  3.01980662698043e-14, 9.61322230819322, 0.762, !- X,Y,Z Vertex 2 {m}
  3.01980662698043e-14, 0.0254000000000012, 0.762, !- X,Y,Z Vertex 3 {m}
  3.01980662698043e-14, 0.0254000000000012, 0.945848969146629; !- X,Y,Z Vertex 4 {m}

OS:SubSurface,
  {b34494da-1651-4843-92d7-9576c3abdbac}, !- Handle
  Sub Surface 2,                          !- Name
  FixedWindow,                            !- Sub Surface Type
  {9e2f3fb2-6058-4975-8c94-a2f0d7fcf221}, !- Construction Name
  {760bf8ac-19c6-464b-8bb5-3c2b17837386}, !- Surface Name
  ,                                       !- Outside Boundary Condition Object
  ,                                       !- View Factor to Ground
  ,                                       !- Frame and Divider Name
  ,                                       !- Multiplier
  ,                                       !- Number of Vertices
  0.0254000000000302, 8.88178419700125e-16, 0.945201852848091, !- X,Y,Z Vertex 1 {m}
  0.0254000000000302, 8.88178419700125e-16, 0.762, !- X,Y,Z Vertex 2 {m}
  28.8904669245796, 8.88178419700125e-16, 0.762, !- X,Y,Z Vertex 3 {m}
  28.8904669245796, 8.88178419700125e-16, 0.945201852848091; !- X,Y,Z Vertex 4 {m}

OS:SubSurface,
  {b28cbb31-fd4b-4e45-b05c-bfddd5cb40ad}, !- Handle
  Sub Surface 3,                          !- Name
  FixedWindow,                            !- Sub Surface Type
  {9e2f3fb2-6058-4975-8c94-a2f0d7fcf221}, !- Construction Name
  {e2b71f97-16b9-4002-9178-0d2e59996dcf}, !- Surface Name
  ,                                       !- Outside Boundary Condition Object
  ,                                       !- View Factor to Ground
  ,                                       !- Frame and Divider Name
  ,                                       !- Multiplier
  ,                                       !- Number of Vertices
  28.9158669245796, 0.0254000000000009, 0.945848969146629, !- X,Y,Z Vertex 1 {m}
  28.9158669245796, 0.0254000000000009, 0.762, !- X,Y,Z Vertex 2 {m}
  28.9158669245796, 9.61322230819322, 0.762, !- X,Y,Z Vertex 3 {m}
  28.9158669245796, 9.61322230819322, 0.945848969146629; !- X,Y,Z Vertex 4 {m}

OS:SubSurface,
  {f3928db6-4cbe-4fb6-b9e4-f87ceb0a55f3}, !- Handle
  Sub Surface 4,                          !- Name
  FixedWindow,                            !- Sub Surface Type
  {9e2f3fb2-6058-4975-8c94-a2f0d7fcf221}, !- Construction Name
  {5061d694-fa96-45e1-886e-c08015e58aa6}, !- Surface Name
  ,                                       !- Outside Boundary Condition Object
  ,                                       !- View Factor to Ground
  ,                                       !- Frame and Divider Name
  ,                                       !- Multiplier
  ,                                       !- Number of Vertices
  28.8904669245796, 9.63862230819322, 0.945201852848091, !- X,Y,Z Vertex 1 {m}
  28.8904669245796, 9.63862230819322, 0.762, !- X,Y,Z Vertex 2 {m}
  0.0254000000000296, 9.63862230819322, 0.762, !- X,Y,Z Vertex 3 {m}
  0.0254000000000296, 9.63862230819322, 0.945201852848091; !- X,Y,Z Vertex 4 {m}

OS:People:Definition,
  {9532bb9a-bf6e-4caf-a833-d61a91ab95a0}, !- Handle
  Office WholeBuilding - Sm Office People Definition, !- Name
  People/Area,                            !- Number of People Calculation Method
  ,                                       !- Number of People {people}
  0.0538195520835486,                     !- People per Space Floor Area {person/m2}
  ,                                       !- Space Floor Area per Person {m2/person}
  0.3;                                    !- Fraction Radiant

OS:People,
  {6616964d-e6a7-4af1-a792-94a71feddb22}, !- Handle
  Office WholeBuilding - Sm Office People, !- Name
  {9532bb9a-bf6e-4caf-a833-d61a91ab95a0}, !- People Definition Name
  {61f8836d-e4e2-4428-8a6b-7adf8b98c70b}, !- Space or SpaceType Name
  ,                                       !- Number of People Schedule Name
  ,                                       !- Activity Level Schedule Name
  ,                                       !- Surface Name/Angle Factor List Name
  {16ebe8e0-4b06-4d6a-bc37-aad0ef27838c}, !- Work Efficiency Schedule Name
  {34822f48-2c98-4efb-8e77-28c3bac9b20f}, !- Clothing Insulation Schedule Name
  {ac292200-aebf-4477-acff-ae49215eec87}, !- Air Velocity Schedule Name
  1;                                      !- Multiplier

OS:Schedule:Ruleset,
  {34822f48-2c98-4efb-8e77-28c3bac9b20f}, !- Handle
  Clothing Schedule,                      !- Name
  {957495b3-8f38-4ad0-a916-ca45b693ce03}, !- Schedule Type Limits Name
  {e1a950c9-e993-4e3b-902c-bd88142e3ed4}; !- Default Day Schedule Name

OS:Schedule:Day,
  {e1a950c9-e993-4e3b-902c-bd88142e3ed4}, !- Handle
  Clothing Schedule Default Winter Clothes, !- Name
  {957495b3-8f38-4ad0-a916-ca45b693ce03}, !- Schedule Type Limits Name
  ,                                       !- Interpolate to Timestep
  24,                                     !- Hour 1