
OS:Version,
  {a6ad5d31-3f73-4468-a55c-43d67aedf720}, !- Handle
  3.8.0;                                  !- Version Identifier

OS:Facility,
  {f387357a-6b38-4dab-8d78-e74e45f51542}; !- Handle

OS:Site,
  {a005cb29-03f8-46b8-b7ce-0e2c83026a76}, !- Handle
  Fresno Air Terminal_CA_USA,             !- Name
  36.78,                                  !- Latitude {deg}
  -119.72,                                !- Longitude {deg}
  -8,                                     !- Time Zone {hr}
  100,                                    !- Elevation {m}
  City;                                   !- Terrain

OS:SimulationControl,
  {9ae6e580-a927-41b3-a804-c199942853e2}, !- Handle
  ,                                       !- Do Zone Sizing Calculation
  ,                                       !- Do System Sizing Calculation
  ,                                       !- Do Plant Sizing Calculation
  No,                                     !- Run Simulation for Sizing Periods
  Yes,                                    !- Run Simulation for Weather File Run Periods
  ,                                       !- Loads Convergence Tolerance Value {W}
  ,                                       !- Temperature Convergence Tolerance Value {deltaC}
  ,                                       !- Solar Distribution
  ,                                       !- Maximum Number of Warmup Days
  ,                                       !- Minimum Number of Warmup Days
  No,                                     !- Do HVAC Sizing Simulation for Sizing Periods
  1;                                      !- Maximum Number of HVAC Sizing Simulation Passes

OS:Sizing:Parameters,
  {fcbdb30a-127e-4939-9092-50f80cf7eefe}, !- Handle
  1.25,                                   !- Heating Sizing Factor
  1.15;                                   !- Cooling Sizing Factor

OS:Timestep,
  {7487aa6f-088e-4142-a87b-833bfe2243d0}, !- Handle
  4;                                      !- Number of Timesteps per Hour

OS:ShadowCalculation,
  {a8b525fd-12ab-4eaf-a93c-ae41d90958fc}, !- Handle
  PolygonClipping,                        !- Shading Calculation Method
  ,                                       !- Shading Calculation Update Frequency Method
  20,                                     !- Shading Calculation Update Frequency
  15000,                                  !- Maximum Figures in Shadow Overlap Calculations
  ,                                       !- Polygon Clipping Algorithm
  512,                                    !- Pixel Counting Resolution
  ,                                       !- Sky Diffuse Modeling Algorithm
  No,                                     !- Output External Shading Calculation Results
  No,                                     !- Disable Self-Shading Within Shading Zone Groups
  No;                                     !- Disable Self-Shading From Shading Zone Groups to Other Zones

OS:HeatBalanceAlgorithm,
  {ae1f5ad1-fc08-4969-b63e-026f851bb597}, !- Handle
  ConductionTransferFunction,             !- Algorithm
  200;                                    !- Surface Temperature Upper Limit {C}

OS:RunPeriod,
  {061feec7-9c91-463c-8314-cc938d4b61ae}, !- Handle
  Run Period 1,                           !- Name
  1,                                      !- Begin Month
  1,                                      !- Begin Day of Month
  12,                                     !- End Month
  31,                                     !- End Day of Month
  ,                                       !- Use Weather File Holidays and Special Days
  ,                                       !- Use Weather File Daylight Saving Period
  ,                                       !- Apply Weekend Holiday Rule
  ,                                       !- Use Weather File Rain Indicators
  ,                                       !- Use Weather File Snow Indicators
  ;                                       !- Number of Times Runperiod to be Repeated

OS:LifeCycleCost:Parameters,
  {35122889-b220-4162-9f60-7adebdc83f9b}, !- Handle
  ,                                       !- Analysis Type
  ,                                       !- Discounting Convention
  ,                                       !- Inflation Approach
  ,                                       !- Real Discount Rate
  ,                                       !- Nominal Discount Rate
  ,                                       !- Inflation
  ,                                       !- Base Date Month
  ,                                       !- Base Date Year
  ,                                       !- Service Date Month
  ,                                       !- Service Date Year
  ;                                       !- Length of Study Period in Years

OS:WeatherFile,
  {d03bf301-5d29-4e5f-8e33-9bd0865415eb}, !- Handle
  Fresno Air Terminal,                    !- City
  CA,                                     !- State Province Region
  USA,                                    !- Country
  customized weather file,                !- Data Source
  723890,                                 !- WMO Number
  36.78,                                  !- Latitude {deg}
  -119.72,                                !- Longitude {deg}
  -8,                                     !- Time Zone {hr}
  100,                                    !- Elevation {m}
  /weather/G0600190.epw,                  !- Url
  226BE93E,                               !- Checksum
  ,                                       !- Start Date Actual Year
  Friday;                                 !- Start Day of Week

OS:Site:WaterMainsTemperature,
  {e09a5e98-925a-455d-b02b-96ed35898dc5}, !- Handle
  Correlation,                            !- Calculation Method
  ,                                       !- Temperature Schedule Name
  19.1625,                                !- Annual Average Outdoor Air Temperature {C}
  21.42;                                  !- Maximum Difference In Monthly Average Outdoor Air Temperatures {deltaC}

OS:SizingPeriod:DesignDay,
  {43152d08-d938-4cc6-be76-cb2d39df2222}, !- Handle
  Fresno Air Terminal Ann Clg .4% Condns DB=>MWB 1, !- Name
  39.7,                                   !- Maximum Dry-Bulb Temperature {C}
  16.4,                                   !- Daily Dry-Bulb Temperature Range {deltaC}
  100129,                                 !- Barometric Pressure {Pa}
  3.7,                                    !- Wind Speed {m/s}
  300,                                    !- Wind Direction {deg}
  ,                                       !- Sky Clearness
  No,                                     !- Rain Indicator
  No,                                     !- Snow Indicator
  21,                                     !- Day of Month
  7,                                      !- Month
  SummerDesignDay,                        !- Day Type
  No,                                     !- Daylight Saving Time Indicator
  Wetbulb,                                !- Humidity Condition Type
  ,                                       !- Humidity Condition Day Schedule Name
  21.6,                                   !- Wetbulb or DewPoint at Maximum Dry-Bulb {C}
  ,                                       !- Humidity Ratio at Maximum Dry-Bulb {kgWater/kgDryAir}
  ,                                       !- Enthalpy at Maximum Dry-Bulb {J/kg}
  DefaultMultipliers,                     !- Dry-Bulb Temperature Range Modifier Type
  ,                                       !- Dry-Bulb Temperature Range Modifier Day Schedule Name
  ASHRAETau,                              !- Solar Model Indicator
  ,                                       !- Beam Solar Day Schedule Name
  ,                                       !- Diffuse Solar Day Schedule Name
  0.352,                                  !- ASHRAE Clear Sky Optical Depth for Beam Irradiance {dimensionless}
  2.403;                                  !- ASHRAE Clear Sky Optical Depth for Diffuse Irradiance {dimensionless}

OS:SizingPeriod:DesignDay,
  {88fa73e6-25b6-490f-a231-340515847aea}, !- Handle
  Fresno Air Terminal Ann Clg .4% Condns WB=>MDB 1, !- Name
  36.4,                                   !- Maximum Dry-Bulb Temperature {C}
  16.4,                                   !- Daily Dry-Bulb Temperature Range {deltaC}
  100129,                                 !- Barometric Pressure {Pa}
  3.7,                                    !- Wind Speed {m/s}
  300,                                    !- Wind Direction {deg}
  ,                                       !- Sky Clearness
  No,                                     !- Rain Indicator
  No,                                     !- Snow Indicator
  21,                                     !- Day of Month
  7,                                      !- Month
  SummerDesignDay,                        !- Day Type
  No,                                     !- Daylight Saving Time Indicator
  Wetbulb,                                !- Humidity Condition Type
  ,                                       !- Humidity Condition Day Schedule Name
  23,                                     !- Wetbulb or DewPoint at Maximum Dry-Bulb {C}
  ,                                       !- Humidity Ratio at Maximum Dry-Bulb {kgWater/kgDryAir}
  ,                                       !- Enthalpy at Maximum Dry-Bulb {J/kg}
  DefaultMultipliers,                     !- Dry-Bulb Temperature Range Modifier Type
  ,                                       !- Dry-Bulb Temperature Range Modifier Day Schedule Name
  ASHRAETau,                              !- Solar Model Indicator
  ,                                       !- Beam Solar Day Schedule Name
  ,                                       !- Diffuse Solar Day Schedule Name
  0.352,                                  !- ASHRAE Clear Sky Optical Depth for Beam Irradiance {dimensionless}
  2.403;                                  !- ASHRAE Clear Sky Optical Depth for Diffuse Irradiance {dimensionless}

OS:SizingPeriod:DesignDay,
  {a83dd0cd-f8bd-4ec4-8f3c-4b32f1a82d95}, !- Handle
  Fresno Air Terminal Ann Htg 99.6% Condns DB 1, !- Name
  -0.3,                                   !- Maximum Dry-Bulb Temperature {C}
  0,                                      !- Daily Dry-Bulb Temperature Range {deltaC}
  100129,                                 !- Barometric Pressure {Pa}
  1.2,                                    !- Wind Speed {m/s}
  80,                                     !- Wind Direction {deg}
  0,                                      !- Sky Clearness
  No,                                     !- Rain Indicator
  No,                                     !- Snow Indicator
  21,                                     !- Day of Month
  12,                                     !- Month
  WinterDesignDay,                        !- Day Type
  No,                                     !- Daylight Saving Time Indicator
  Wetbulb,                                !- Humidity Condition Type
  ,                                       !- Humidity Condition Day Schedule Name
  -0.3,                                   !- Wetbulb or DewPoint at Maximum Dry-Bulb {C}
  ,                                       !- Humidity Ratio at Maximum Dry-Bulb {kgWater/kgDryAir}
  ,                                       !- Enthalpy at Maximum Dry-Bulb {J/kg}
  DefaultMultipliers,                     !- Dry-Bulb Temperature Range Modifier Type
  ,                                       !- Dry-Bulb Temperature Range Modifier Day Schedule Name
  ASHRAEClearSky;                         !- Solar Model Indicator

OS:SizingPeriod:DesignDay,
  {7e6d8506-20f3-4dca-8fef-28090cf5f09a}, !- Handle
  Fresno Air Terminal August .4% Condns DB=>MCWB 1, !- Name
  41.1,                                   !- Maximum Dry-Bulb Temperature {C}
  16.6,                                   !- Daily Dry-Bulb Temperature Range {deltaC}
  100129,                                 !- Barometric Pressure {Pa}
  3.7,                                    !- Wind Speed {m/s}
  300,                                    !- Wind Direction {deg}
  ,                                       !- Sky Clearness
  No,                                     !- Rain Indicator
  No,                                     !- Snow Indicator
  21,                                     !- Day of Month
  8,                                      !- Month
  SummerDesignDay,                        !- Day Type
  No,                                     !- Daylight Saving Time Indicator
  Wetbulb,                                !- Humidity Condition Type
  ,                                       !- Humidity Condition Day Schedule Name
  22.3,                                   !- Wetbulb or DewPoint at Maximum Dry-Bulb {C}
  ,                                       !- Humidity Ratio at Maximum Dry-Bulb {kgWater/kgDryAir}
  ,                                       !- Enthalpy at Maximum Dry-Bulb {J/kg}
  DefaultMultipliers,                     !- Dry-Bulb Temperature Range Modifier Type
  ,                                       !- Dry-Bulb Temperature Range Modifier Day Schedule Name
  ASHRAETau,                              !- Solar Model Indicator
  ,                                       !- Beam Solar Day Schedule Name
  ,                                       !- Diffuse Solar Day Schedule Name
  0.376,                                  !- ASHRAE Clear Sky Optical Depth for Beam Irradiance {dimensionless}
  2.367;                                  !- ASHRAE Clear Sky Optical Depth for Diffuse Irradiance {dimensionless}

OS:SizingPeriod:DesignDay,
  {8e484bc9-9d23-4cfe-8f65-028604e65da5}, !- Handle
  Fresno Air Terminal October .4% Condns DB=>MCWB 1, !- Name
  35.1,                                   !- Maximum Dry-Bulb Temperature {C}
  14.1,                                   !- Daily Dry-Bulb Temperature Range {deltaC}
  100129,                                 !- Barometric Pressure {Pa}
  3.7,                                    !- Wind Speed {m/s}
  300,                                    !- Wind Direction {deg}
  ,                                       !- Sky Clearness
  No,                                     !- Rain Indicator
  No,                                     !- Snow Indicator
  21,                                     !- Day of Month
  10,                                     !- Month
  SummerDesignDay,                        !- Day Type
  No,                                     !- Daylight Saving Time Indicator
  Wetbulb,                                !- Humidity Condition Type
  ,                                       !- Humidity Condition Day Schedule Name
  19.7,                                   !- Wetbulb or DewPoint at Maximum Dry-Bulb {C}
  ,                                       !- Humidity Ratio at Maximum Dry-Bulb {kgWater/kgDryAir}
  ,                                       !- Enthalpy at Maximum Dry-Bulb {J/kg}
  DefaultMultipliers,                     !- Dry-Bulb Temperature Range Modifier Type
  ,                                       !- Dry-Bulb Temperature Range Modifier Day Schedule Name
  ASHRAETau,                              !- Solar Model Indicator
  ,                                       !- Beam Solar Day Schedule Name
  ,                                       !- Diffuse Solar Day Schedule Name
  0.374,                                  !- ASHRAE Clear Sky Optical Depth for Beam Irradiance {dimensionless}
  2.432;                                  !- ASHRAE Clear Sky Optical Depth for Diffuse Irradiance {dimensionless}

OS:SizingPeriod:DesignDay,
  {928b5d0e-0cce-4502-88c6-4d239b306c8d}, !- Handle
  Fresno Air Terminal September .4% Condns DB=>MCWB 1, !- Name
  39,                                     !- Maximum Dry-Bulb Temperature {C}
  15.9,                                   !- Daily Dry-Bulb Temperature Range {deltaC}
  100129,                                 !- Barometric Pressure {Pa}
  3.7,                                    !- Wind Speed {m/s}
  300,                                    !- Wind Direction {deg}
  ,                                       !- Sky Clearness
  No,                                     !- Rain Indicator
  No,                                     !- Snow Indicator
  21,                                     !- Day of Month
  9,                                      !- Month
  SummerDesignDay,                        !- Day Type
  No,                                     !- Daylight Saving Time Indicator
  Wetbulb,                                !- Humidity Condition Type
  ,                                       !- Humidity Condition Day Schedule Name
  21,                                     !- Wetbulb or DewPoint at Maximum Dry-Bulb {C}
  ,                                       !- Humidity Ratio at Maximum Dry-Bulb {kgWater/kgDryAir}
  ,                                       !- Enthalpy at Maximum Dry-Bulb {J/kg}
  DefaultMultipliers,                     !- Dry-Bulb Temperature Range Modifier Type
  ,                                       !- Dry-Bulb Temperature Range Modifier Day Schedule Name
  ASHRAETau,                              !- Solar Model Indicator
  ,                                       !- Beam Solar Day Schedule Name
  ,                                       !- Diffuse Solar Day Schedule Name
  0.375,                                  !- ASHRAE Clear Sky Optical Depth for Beam Irradiance {dimensionless}
  2.424;                                  !- ASHRAE Clear Sky Optical Depth for Diffuse Irradiance {dimensionless}

OS:ClimateZones,
  {aac59025-787f-45c3-9aeb-4d73cab9efbd}, !- Handle
  CEC,                                    !- Climate Zone Institution Name 1
  California Climate Zone Descriptions,   !- Climate Zone Document Name 1
  1995,                                   !- Climate Zone Document Year 1
  13;                                     !- Climate Zone Value 1

OS:RunPeriodControl:DaylightSavingTime,
  {f43454f7-bf87-4cb6-b0e1-99fc1f06bf97}, !- Handle
  2nd Sunday in March,                    !- Start Date
  1st Sunday in November;                 !- End Date

OS:YearDescription,
  {c321a23a-2b8c-4539-ae6b-d00047bfae5b}, !- Handle
  2018,                                   !- Calendar Year
  ,                                       !- Day of Week for Start Day
  ;                                       !- Is Leap Year

OS:Building,
  {70253520-dc93-4d94-9164-f9f5090317c2}, !- Handle
  ComStock DEER Pre-1975|RFF,             !- Name
  ,                                       !- Building Sector Type
  180,                                    !- North Axis {deg}
  ,                                       !- Nominal Floor to Floor Height {m}
  ,                                       !- Space Type Name
  {1c56b465-be9b-445f-b748-843fe83d54f0}, !- Default Construction Set Name
  {78bae204-21ff-47d2-a355-574aaf24bf59}, !- Default Schedule Set Name
  ,                                       !- Standards Number of Stories
  ,                                       !- Standards Number of Above Ground Stories
  ,                                       !- Standards Template
  RFF;                                    !- Standards Building Type

OS:AdditionalProperties,
  {14dd3c8a-3b6c-4268-9b69-5ef934a168a9}, !- Handle
  {70253520-dc93-4d94-9164-f9f5090317c2}, !- Object Name
  Building,                               !- Feature Name 1
  String,                                 !- Feature Data Type 1
  1066,                                   !- Feature Value 1
  Soil Conductivity,                      !- Feature Name 2
  Double,                                 !- Feature Data Type 2
  1.3999999999999999,                     !- Feature Value 2
  Undisturbed Ground Temperature,         !- Feature Name 3
  Double,                                 !- Feature Data Type 3
  19.699999999999999,                     !- Feature Value 3
  airtightness,                           !- Feature Name 4
  String,                                 !- Feature Data Type 4
  45.0,                                   !- Feature Value 4
  american_housing_survey_region,         !- Feature Name 5
  String,                                 !- Feature Data Type 5
  Non-CBSA Pacific,                       !- Feature Value 5
  aspect_ratio,                           !- Feature Name 6
  String,                                 !- Feature Data Type 6
  2,                                      !- Feature Value 6
  baseline_hvac_sizing,                   !- Feature Name 7
  String,                                 !- Feature Data Type 7
  hardsize,                               !- Feature Value 7
  baseline_window_type,                   !- Feature Name 8
  String,                                 !- Feature Data Type 8
  Single - No LowE - Tinted/Reflective - Wood, !- Feature Value 8
  building_shape,                         !- Feature Name 9
  String,                                 !- Feature Data Type 9
  2,                                      !- Feature Value 9
  building_size_lighting_tech,            !- Feature Name 10
  String,                                 !- Feature Data Type 10
  small,                                  !- Feature Value 10
  building_subtype,                       !- Feature Name 11
  String,                                 !- Feature Data Type 11
  NA,                                     !- Feature Value 11
  building_type,                          !- Feature Name 12
  String,                                 !- Feature Data Type 12
  quick_service_restaurant,               !- Feature Value 12
  cambium_grid_region,                    !- Feature Name 13
  String,                                 !- Feature Data Type 13
  CAMXc,                                  !- Feature Value 13
  census_division_name,                   !- Feature Name 14
  String,                                 !- Feature Data Type 14
  Pacific,                                !- Feature Value 14
  census_division_name_recs,              !- Feature Name 15
  String,                                 !- Feature Data Type 15
  Pacific,                                !- Feature Value 15
  census_region_name,                     !- Feature Name 16
  String,                                 !- Feature Data Type 16
  West,                                   !- Feature Value 16
  climate_zone,                           !- Feature Name 17
  String,                                 !- Feature Data Type 17
  3B,                                     !- Feature Value 17
  climate_zone_ashrae_2006,               !- Feature Name 18
  String,                                 !- Feature Data Type 18
  3B,                                     !- Feature Value 18
  climate_zone_building_america,          !- Feature Name 19
  String,                                 !- Feature Data Type 19
  Hot-Dry,                                !- Feature Value 19
  cluster_id,                             !- Feature Name 20
  String,                                 !- Feature Data Type 20
  113,                                    !- Feature Value 20
  cluster_name,                           !- Feature Name 21
  String,                                 !- Feature Data Type 21
  CA Climate Zone 13,                     !- Feature Value 21
  cook_broiler_counts,                    !- Feature Name 22
  String,                                 !- Feature Data Type 22
  0.0,                                    !- Feature Value 22
  cook_dining_type,                       !- Feature Name 23
  String,                                 !- Feature Data Type 23
  Chicken A,                              !- Feature Value 23
  cook_fryers_counts,                     !- Feature Name 24
  String,                                 !- Feature Data Type 24
  10.0,                                   !- Feature Value 24
  cook_fuel_broiler,                      !- Feature Name 25
  String,                                 !- Feature Data Type 25
  Gas,                                    !- Feature Value 25
  cook_fuel_fryer,                        !- Feature Name 26
  String,                                 !- Feature Data Type 26
  Electric,                               !- Feature Value 26
  cook_fuel_griddle,                      !- Feature Name 27
  String,                                 !- Feature Data Type 27
  Electric,                               !- Feature Value 27
  cook_fuel_oven,                         !- Feature Name 28
  String,                                 !- Feature Data Type 28
  Gas,                                    !- Feature Value 28
  cook_fuel_range,                        !- Feature Name 29
  String,                                 !- Feature Data Type 29
  Gas,                                    !- Feature Value 29
  cook_fuel_steamer,                      !- Feature Name 30
  String,                                 !- Feature Data Type 30
  Electric,                               !- Feature Value 30
  cook_griddles_counts,                   !- Feature Name 31
  String,                                 !- Feature Data Type 31
  1.0,                                    !- Feature Value 31
  cook_ovens_counts,                      !- Feature Name 32
  String,                                 !- Feature Data Type 32
  1.0,                                    !- Feature Value 32
  cook_ranges_counts,                     !- Feature Name 33
  String,                                 !- Feature Data Type 33
  0.0,                                    !- Feature Value 33
  cook_steamers_counts,                   !- Feature Name 34
  String,                                 !- Feature Data Type 34
  1.0,                                    !- Feature Value 34
  county_id,                              !- Feature Name 35
  String,                                 !- Feature Data Type 35
  G0600190,                               !- Feature Value 35
  energy_code_compliance_during_original_building_construction, !- Feature Name 36
  String,                                 !- Feature Data Type 36
  comply,                                 !- Feature Value 36
  energy_code_compliance_exterior_lighting, !- Feature Name 37
  String,                                 !- Feature Data Type 37
  comply,                                 !- Feature Value 37
  energy_code_compliance_hvac,            !- Feature Name 38
  String,                                 !- Feature Data Type 38
  comply,                                 !- Feature Value 38
  energy_code_compliance_interior_equipment, !- Feature Name 39
  String,                                 !- Feature Data Type 39
  comply,                                 !- Feature Value 39
  energy_code_compliance_interior_lighting, !- Feature Name 40
  String,                                 !- Feature Data Type 40
  lead,                                   !- Feature Value 40
  energy_code_compliance_roof,            !- Feature Name 41
  String,                                 !- Feature Data Type 41
  comply,                                 !- Feature Value 41
  energy_code_compliance_service_water_heating, !- Feature Name 42
  String,                                 !- Feature Data Type 42
  comply,                                 !- Feature Value 42
  energy_code_compliance_walls,           !- Feature Name 43
  String,                                 !- Feature Data Type 43
  comply,                                 !- Feature Value 43
  energy_code_compliance_windows,         !- Feature Name 44
  String,                                 !- Feature Data Type 44
  comply,                                 !- Feature Value 44
  energy_code_followed_during_last_exterior_lighting_replacement, !- Feature Name 45
  String,                                 !- Feature Data Type 45
  ComStock DEER 2011,                     !- Feature Value 45
  energy_code_followed_during_last_hvac_replacement, !- Feature Name 46
  String,                                 !- Feature Data Type 46
  ComStock DEER 2003,                     !- Feature Value 46
  energy_code_followed_during_last_interior_equipment_replacement, !- Feature Name 47
  String,                                 !- Feature Data Type 47
  ComStock DEER 2003,                     !- Feature Value 47
  energy_code_followed_during_last_interior_lighting_replacement, !- Feature Name 48
  String,                                 !- Feature Data Type 48
  ComStock DEER 2017,                     !- Feature Value 48
  energy_code_followed_during_last_roof_replacement, !- Feature Name 49
  String,                                 !- Feature Data Type 49
  ComStock DEER Pre-1975,                 !- Feature Value 49
  energy_code_followed_during_last_service_water_heating_replacement, !- Feature Name 50
  String,                                 !- Feature Data Type 50
  ComStock DEER 2003,                     !- Feature Value 50
  energy_code_followed_during_last_walls_replacement, !- Feature Name 51
  String,                                 !- Feature Data Type 51
  ComStock DEER Pre-1975,                 !- Feature Value 51
  energy_code_followed_during_last_windows_replacement, !- Feature Name 52
  String,                                 !- Feature Data Type 52
  ComStock DEER Pre-1975,                 !- Feature Value 52
  energy_code_followed_during_original_building_construction, !- Feature Name 53
  String,                                 !- Feature Data Type 53
  ComStock DEER Pre-1975,                 !- Feature Value 53
  energy_code_in_force_during_last_exterior_lighting_replacement, !- Feature Name 54
  String,                                 !- Feature Data Type 54
  ComStock DEER 2011,                     !- Feature Value 54
  energy_code_in_force_during_last_hvac_replacement, !- Feature Name 55
  String,                                 !- Feature Data Type 55
  ComStock DEER 2003,                     !- Feature Value 55
  energy_code_in_force_during_last_interior_equipment_replacement, !- Feature Name 56
  String,                                 !- Feature Data Type 56