
OS:Version,
  {e382fccc-9a97-4a90-aa89-c54c13015e70}, !- Handle
  2.7.1;                                  !- Version Identifier

OS:WeatherFile,
  {2e6b577a-8b1a-4974-830d-51891250edfa}, !- Handle
  CA_LOS-ANGELES-DOWNTOWN-,               !- City
  -,                                      !- State Province Region
  USA,                                    !- Country
  Custom-722874,                          !- Data Source
  722874,                                 !- WMO Number
  34.03,                                  !- Latitude {deg}
  -118.3,                                 !- Longitude {deg}
  -8,                                     !- Time Zone {hr}
  56,                                     !- Elevation {m}
  file:////weather/CA_LOS-ANGELES-DOWNTOWN-USC_722874S_12.epw, !- Url
  288AE598;                               !- Checksum

OS:RunPeriodControl:DaylightSavingTime,
  {3e021f39-b844-488a-9963-6c9bb9702e3f}, !- Handle
  2nd Sunday in March,                    !- Start Date
  1st Sunday in November;                 !- End Date

OS:YearDescription,
  {6be81c51-07d1-48d1-9446-776420ea0500}, !- Handle
  2015,                                   !- Calendar Year
  ,                                       !- Day of Week for Start Day
  ;                                       !- Is Leap Year

OS:Timestep,
  {f54c7191-4758-4a80-a439-54a2895786a9}, !- Handle
  4;                                      !- Number of Timesteps per Hour

OS:RunPeriod,
  {6da7f618-54af-4467-904f-aa46a4a24487}, !- Handle
  Run Period 1,                           !- Name
  1,                                      !- Begin Month
  1,                                      !- Begin Day of Month
  12,                                     !- End Month
  30,                                     !- End Day of Month
  ,                                       !- Use Weather File Holidays and Special Days
  ,                                       !- Use Weather File Daylight Saving Period
  ,                                       !- Apply Weekend Holiday Rule
  ,                                       !- Use Weather File Rain Indicators
  ,                                       !- Use Weather File Snow Indicators
  ;                                       !- Number of Times Runperiod to be Repeated

OS:Site,
  {510ae44e-4837-462f-9065-3c5502c5f433}, !- Handle
  CA_LOS-ANGELES-DOWNTOWN-_-_USA,         !- Name
  34.03,                                  !- Latitude {deg}
  -118.3,                                 !- Longitude {deg}
  -8,                                     !- Time Zone {hr}
  56,                                     !- Elevation {m}
  City;                                   !- Terrain

OS:Site:WaterMainsTemperature,
  {ad7fa1f1-1edd-4fe2-8026-de415baa0fcd}, !- Handle
  Correlation,                            !- Calculation Method
  ,                                       !- Temperature Schedule Name
  17.9083333333333,                       !- Annual Average Outdoor Air Temperature {C}
  10.6;                                   !- Maximum Difference In Monthly Average Outdoor Air Temperatures {deltaC}

OS:SizingPeriod:DesignDay,
  {084390ee-8cc1-42a6-ae10-519d8f0fc1eb}, !- Handle
  CA_LOS-ANGELES-DOWNTOWN- Ann Clg .4% Condns DB=>MWB 1, !- Name
  32.8,                                   !- Maximum Dry-Bulb Temperature {C}
  9.7,                                    !- Daily Dry-Bulb Temperature Range {deltaC}
  18.9,                                   !- Humidity Indicating Conditions at Maximum Dry-Bulb
  100654,                                 !- Barometric Pressure {Pa}
  1.5,                                    !- Wind Speed {m/s}
  0,                                      !- Wind Direction {deg}
  0,                                      !- Sky Clearness
  0,                                      !- Rain Indicator
  0,                                      !- Snow Indicator
  21,                                     !- Day of Month
  8,                                      !- Month
  SummerDesignDay,                        !- Day Type
  0,                                      !- Daylight Saving Time Indicator
  Wetbulb,                                !- Humidity Indicating Type
  ,                                       !- Humidity Indicating Day Schedule Name
  DefaultMultipliers,                     !- Dry-Bulb Temperature Range Modifier Type
  ,                                       !- Dry-Bulb Temperature Range Modifier Schedule Name
  ASHRAETau,                              !- Solar Model Indicator
  ,                                       !- Beam Solar Day Schedule Name
  ,                                       !- Diffuse Solar Day Schedule Name
  0.361,                                  !- ASHRAE Taub {dimensionless}
  2.436;                                  !- ASHRAE Taud {dimensionless}

OS:SizingPeriod:DesignDay,
  {939ad8a8-9672-413e-a477-f77315647f58}, !- Handle
  CA_LOS-ANGELES-DOWNTOWN- Ann Clg .4% Condns WB=>MDB 1, !- Name
  29.2,                                   !- Maximum Dry-Bulb Temperature {C}
  9.7,                                    !- Daily Dry-Bulb Temperature Range {deltaC}
  22,                                     !- Humidity Indicating Conditions at Maximum Dry-Bulb
  100654,                                 !- Barometric Pressure {Pa}
  1.5,                                    !- Wind Speed {m/s}
  0,                                      !- Wind Direction {deg}
  0,                                      !- Sky Clearness
  0,                                      !- Rain Indicator
  0,                                      !- Snow Indicator
  21,                                     !- Day of Month
  8,                                      !- Month
  SummerDesignDay,                        !- Day Type
  0,                                      !- Daylight Saving Time Indicator
  Wetbulb,                                !- Humidity Indicating Type
  ,                                       !- Humidity Indicating Day Schedule Name
  DefaultMultipliers,                     !- Dry-Bulb Temperature Range Modifier Type
  ,                                       !- Dry-Bulb Temperature Range Modifier Schedule Name
  ASHRAETau,                              !- Solar Model Indicator
  ,                                       !- Beam Solar Day Schedule Name
  ,                                       !- Diffuse Solar Day Schedule Name
  0.361,                                  !- ASHRAE Taub {dimensionless}
  2.436;                                  !- ASHRAE Taud {dimensionless}

OS:SizingPeriod:DesignDay,
  {0c229d51-b452-44c1-bdbf-99fcc9a7ea64}, !- Handle
  CA_LOS-ANGELES-DOWNTOWN- Ann Htg 99.6% Condns DB 1, !- Name
  6.2,                                    !- Maximum Dry-Bulb Temperature {C}
  0,                                      !- Daily Dry-Bulb Temperature Range {deltaC}
  6.2,                                    !- Humidity Indicating Conditions at Maximum Dry-Bulb
  100654,                                 !- Barometric Pressure {Pa}
  0.2,                                    !- Wind Speed {m/s}
  0,                                      !- Wind Direction {deg}
  0,                                      !- Sky Clearness
  0,                                      !- Rain Indicator
  0,                                      !- Snow Indicator
  21,                                     !- Day of Month
  12,                                     !- Month
  WinterDesignDay,                        !- Day Type
  0,                                      !- Daylight Saving Time Indicator
  Wetbulb,                                !- Humidity Indicating Type
  ,                                       !- Humidity Indicating Day Schedule Name
  DefaultMultipliers,                     !- Dry-Bulb Temperature Range Modifier Type
  ,                                       !- Dry-Bulb Temperature Range Modifier Schedule Name
  ASHRAEClearSky;                         !- Solar Model Indicator

OS:ClimateZones,
  {e3ee3106-7149-47a1-9954-f91dac410d1b}, !- Handle
  ,                                       !- Active Institution
  ,                                       !- Active Year
  CEC,                                    !- Climate Zone Institution Name 1
  California Climate Zone Descriptions,   !- Climate Zone Document Name 1
  1995,                                   !- Climate Zone Document Year 1
  8;                                      !- Climate Zone Value 1

OS:SpaceType,
  {e9ebb9d1-1557-4e41-a060-a5da6f344a2a}, !- Handle
  MFm ResLiving - DEER 2015,              !- Name
  ,                                       !- Default Construction Set Name
  {d9c71ee1-4176-4e1e-854b-5cd01d2beebd}, !- Default Schedule Set Name
  ,                                       !- Group Rendering Name
  {1d977d89-e2e3-4bc0-9dd9-7eda5320338f}, !- Design Specification Outdoor Air Object Name
  ,                                       !- Standards Template
  MFm,                                    !- Standards Building Type
  ResLiving;                              !- Standards Space Type

OS:SpaceType,
  {b3a98051-ffa2-4304-9c5a-49f58b62f580}, !- Handle
  MFm ResPublicArea - DEER 2015,          !- Name
  ,                                       !- Default Construction Set Name
  {eb0a8724-3a5c-45ae-8adc-203c78ec1403}, !- Default Schedule Set Name
  ,                                       !- Group Rendering Name
  {485e26d2-d240-4cc0-8e95-af61f71d2cbb}, !- Design Specification Outdoor Air Object Name
  ,                                       !- Standards Template
  MFm,                                    !- Standards Building Type
  ResPublicArea;                          !- Standards Space Type

OS:SpaceType,
  {1ebec53e-6d9b-41a3-a054-124d61979935}, !- Handle
  MFm ResBedroom - DEER 2015,             !- Name
  ,                                       !- Default Construction Set Name
  {6809c6a0-e59f-4c54-9229-0a4bf4bac9e0}, !- Default Schedule Set Name
  ,                                       !- Group Rendering Name
  {39ef7ba1-2c00-4343-9c80-f3ddf6eae5a3}, !- Design Specification Outdoor Air Object Name
  ,                                       !- Standards Template
  MFm,                                    !- Standards Building Type
  ResBedroom;                             !- Standards Space Type

OS:Building,
  {0a66cd61-f3d9-4008-a10b-f15d62c4566a}, !- Handle
  DEER 2015|MFm,                          !- Name
  ,                                       !- Building Sector Type
  135,                                    !- North Axis {deg}
  ,                                       !- Nominal Floor to Floor Height {m}
  ,                                       !- Space Type Name
  {19dfeaa3-3a37-4ff0-8b35-38af9fae95cd}, !- Default Construction Set Name
  {a51faec9-5ad5-4daf-a2ad-c60aaa6a9f97}, !- Default Schedule Set Name
  ,                                       !- Standards Number of Stories
  ,                                       !- Standards Number of Above Ground Stories
  ,                                       !- Standards Template
  MFm;                                    !- Standards Building Type

OS:BuildingStory,
  {af82fa0f-cc67-4aad-9e25-99e6a241d7e6}, !- Handle
  Story Ground,                           !- Name
  0,                                      !- Nominal Z Coordinate {m}
  3.048,                                  !- Nominal Floor to Floor Height {m}
  ,                                       !- Default Construction Set Name
  ,                                       !- Default Schedule Set Name
  ;                                       !- Group Rendering Name

OS:Space,
  {dcde962d-d1ac-48ed-97d5-a68dd9bdc4e3}, !- Handle
  MFm ResBedroom A end_a - Story Ground,  !- Name
  {1ebec53e-6d9b-41a3-a054-124d61979935}, !- Space Type Name
  ,                                       !- Default Construction Set Name
  ,                                       !- Default Schedule Set Name
  -0,                                     !- Direction of Relative North {deg}
  -41.7364588818937,                      !- X Origin {m}
  -10.4341147204734,                      !- Y Origin {m}
  0,                                      !- Z Origin {m}
  {af82fa0f-cc67-4aad-9e25-99e6a241d7e6}, !- Building Story Name
  {a6d39f6a-8e5c-49ce-bdda-6590ce78f844}; !- Thermal Zone Name

OS:Surface,
  {60e693d9-a36b-4beb-bffe-46e7b21ca3ad}, !- Handle
  Surface 1,                              !- Name
  Floor,                                  !- Surface Type
  {c0cbc384-f88d-4b70-9e63-bcdfe7dd48b4}, !- Construction Name
  {dcde962d-d1ac-48ed-97d5-a68dd9bdc4e3}, !- Space Name
  Ground,                                 !- Outside Boundary Condition
  ,                                       !- Outside Boundary Condition Object
  NoSun,                                  !- Sun Exposure
  NoWind,                                 !- Wind Exposure
  ,                                       !- View Factor to Ground
  ,                                       !- Number of Vertices
  -4.2632564145606e-14, 1.59872115546023e-14, 0, !- X,Y,Z Vertex 1 {m}
  -4.2632564145606e-14, 4.572, 0,         !- X,Y,Z Vertex 2 {m}
  4.57199999999995, 4.572, 0,             !- X,Y,Z Vertex 3 {m}
  4.57199999999995, 1.59872115546023e-14, 0; !- X,Y,Z Vertex 4 {m}

OS:Surface,
  {79bbbb54-5a52-4245-b2bf-8d4b4b71cd02}, !- Handle
  Surface 2,                              !- Name
  Wall,                                   !- Surface Type
  {55f5e636-34f8-4474-8e9b-7c972da2d893}, !- Construction Name
  {dcde962d-d1ac-48ed-97d5-a68dd9bdc4e3}, !- Space Name
  Outdoors,                               !- Outside Boundary Condition
  ,                                       !- Outside Boundary Condition Object
  SunExposed,                             !- Sun Exposure
  WindExposed,                            !- Wind Exposure
  ,                                       !- View Factor to Ground
  ,                                       !- Number of Vertices
  -4.2632564145606e-14, 4.572, 3.048,     !- X,Y,Z Vertex 1 {m}
  -4.2632564145606e-14, 4.572, 0,         !- X,Y,Z Vertex 2 {m}
  -4.2632564145606e-14, 1.59872115546023e-14, 0, !- X,Y,Z Vertex 3 {m}
  -4.2632564145606e-14, 1.59872115546023e-14, 3.048; !- X,Y,Z Vertex 4 {m}

OS:Surface,
  {18cd2486-936b-47be-ab76-ba6f96642627}, !- Handle
  Surface 3,                              !- Name
  Wall,                                   !- Surface Type
  ,                                       !- Construction Name
  {dcde962d-d1ac-48ed-97d5-a68dd9bdc4e3}, !- Space Name
  Surface,                                !- Outside Boundary Condition
  {be7b17e2-fa14-4ad5-b896-fdd4a810c3c7}, !- Outside Boundary Condition Object
  NoSun,                                  !- Sun Exposure
  NoWind,                                 !- Wind Exposure
  ,                                       !- View Factor to Ground
  ,                                       !- Number of Vertices
  4.57199999999995, 4.572, 3.048,         !- X,Y,Z Vertex 1 {m}
  4.57199999999995, 4.572, 0,             !- X,Y,Z Vertex 2 {m}
  -4.2632564145606e-14, 4.572, 0,         !- X,Y,Z Vertex 3 {m}
  -4.2632564145606e-14, 4.572, 3.048;     !- X,Y,Z Vertex 4 {m}

OS:Surface,
  {aff96f5f-3754-4348-b5ed-f50e9d07aa59}, !- Handle
  Surface 4,                              !- Name
  Wall,                                   !- Surface Type
  ,                                       !- Construction Name
  {dcde962d-d1ac-48ed-97d5-a68dd9bdc4e3}, !- Space Name
  Surface,                                !- Outside Boundary Condition
  {a3116913-d1a4-48b7-b731-5d564bbbcfd8}, !- Outside Boundary Condition Object
  NoSun,                                  !- Sun Exposure
  NoWind,                                 !- Wind Exposure
  ,                                       !- View Factor to Ground
  ,                                       !- Number of Vertices
  4.57199999999995, 1.59872115546023e-14, 3.048, !- X,Y,Z Vertex 1 {m}
  4.57199999999995, 1.59872115546023e-14, 0, !- X,Y,Z Vertex 2 {m}
  4.57199999999995, 4.572, 0,             !- X,Y,Z Vertex 3 {m}
  4.57199999999995, 4.572, 3.048;         !- X,Y,Z Vertex 4 {m}

OS:Surface,
  {92f220ce-a240-47ca-9bef-36144644da8a}, !- Handle
  Surface 5,                              !- Name
  Wall,                                   !- Surface Type
  {55f5e636-34f8-4474-8e9b-7c972da2d893}, !- Construction Name
  {dcde962d-d1ac-48ed-97d5-a68dd9bdc4e3}, !- Space Name
  Outdoors,                               !- Outside Boundary Condition
  ,                                       !- Outside Boundary Condition Object
  SunExposed,                             !- Sun Exposure
  WindExposed,                            !- Wind Exposure
  ,                                       !- View Factor to Ground
  ,                                       !- Number of Vertices
  -4.2632564145606e-14, 1.59872115546023e-14, 3.048, !- X,Y,Z Vertex 1 {m}
  -4.2632564145606e-14, 1.59872115546023e-14, 0, !- X,Y,Z Vertex 2 {m}
  4.57199999999995, 1.59872115546023e-14, 0, !- X,Y,Z Vertex 3 {m}
  4.57199999999995, 1.59872115546023e-14, 3.048; !- X,Y,Z Vertex 4 {m}

OS:Surface,
  {65c7a930-2b89-4018-b264-7c11e1a047a9}, !- Handle
  Surface 6,                              !- Name
  RoofCeiling,                            !- Surface Type
  ,                                       !- Construction Name
  {dcde962d-d1ac-48ed-97d5-a68dd9bdc4e3}, !- Space Name
  Surface,                                !- Outside Boundary Condition
  {ffaae373-980a-4cfb-aca1-a2a6dc09d151}, !- Outside Boundary Condition Object
  NoSun,                                  !- Sun Exposure
  NoWind,                                 !- Wind Exposure
  ,                                       !- View Factor to Ground
  ,                                       !- Number of Vertices
  4.57199999999995, 1.59872115546023e-14, 3.048, !- X,Y,Z Vertex 1 {m}
  4.57199999999995, 4.572, 3.048,         !- X,Y,Z Vertex 2 {m}
  -4.2632564145606e-14, 4.572, 3.048,     !- X,Y,Z Vertex 3 {m}
  -4.2632564145606e-14, 1.59872115546023e-14, 3.048; !- X,Y,Z Vertex 4 {m}

OS:ThermalZone,
  {a6d39f6a-8e5c-49ce-bdda-6590ce78f844}, !- Handle
  Zone MFm ResBedroom A end_a - Story Ground, !- Name
  1,                                      !- Multiplier
  ,                                       !- Ceiling Height {m}
  ,                                       !- Volume {m3}
  ,                                       !- Floor Area {m2}
  ,                                       !- Zone Inside Convection Algorithm
  ,                                       !- Zone Outside Convection Algorithm
  ,                                       !- Zone Conditioning Equipment List Name
  {16240009-e1c3-43c9-96cc-828712cb37b3}, !- Zone Air Inlet Port List
  {9ea3f584-0fd1-4e53-9a81-3868c02b52ab}, !- Zone Air Exhaust Port List
  {0650ae13-aa2c-45a2-9091-9ed5456cae8b}, !- Zone Air Node Name
  {ef88e4b6-6457-44bc-8b85-30621aa1865f}, !- Zone Return Air Port List
  ,                                       !- Primary Daylighting Control Name
  ,                                       !- Fraction of Zone Controlled by Primary Daylighting Control
  ,                                       !- Secondary Daylighting Control Name
  ,                                       !- Fraction of Zone Controlled by Secondary Daylighting Control
  ,                                       !- Illuminance Map Name
  ,                                       !- Group Rendering Name
  {c280b8c0-0b59-4191-857b-39bef2b8cc8c}, !- Thermostat Name
  No;                                     !- Use Ideal Air Loads

OS:Node,
  {a62c4e75-4883-4c32-9cd3-7de4fa331cc1}, !- Handle
  Zone MFm ResBedroom A end_a - Story Ground Zone Air Node, !- Name
  {0650ae13-aa2c-45a2-9091-9ed5456cae8b}, !- Inlet Port
  ;                                       !- Outlet Port

OS:Connection,
  {0650ae13-aa2c-45a2-9091-9ed5456cae8b}, !- Handle
  {2e32b5e7-1f8d-4a96-a70a-70b4f8e1e94c}, !- Name
  {a6d39f6a-8e5c-49ce-bdda-6590ce78f844}, !- Source Object
  11,                                     !- Outlet Port
  {a62c4e75-4883-4c32-9cd3-7de4fa331cc1}, !- Target Object
  2;                                      !- Inlet Port

OS:PortList,
  {16240009-e1c3-43c9-96cc-828712cb37b3}, !- Handle
  {ac6531d9-4eb0-4cd6-b5f8-2584ca45b6c4}, !- Name
  {a6d39f6a-8e5c-49ce-bdda-6590ce78f844}, !- HVAC Component
  {c1088103-1c8f-4f6d-9f00-e5546a5638a8}; !- Port 1

OS:PortList,
  {9ea3f584-0fd1-4e53-9a81-3868c02b52ab}, !- Handle
  {06eaccfd-ca13-4611-8f1f-f820bc7d6cde}, !- Name
  {a6d39f6a-8e5c-49ce-bdda-6590ce78f844}; !- HVAC Component

OS:PortList,
  {ef88e4b6-6457-44bc-8b85-30621aa1865f}, !- Handle
  {282b1c6e-1b9e-41e1-b344-2c73cae736c8}, !- Name
  {a6d39f6a-8e5c-49ce-bdda-6590ce78f844}, !- HVAC Component
  {61db4d9e-2855-46c4-b1e2-5c920e116d07}; !- Port 1

OS:Sizing:Zone,
  {99a6928b-9616-442c-97d0-955f0adca1ad}, !- Handle
  {a6d39f6a-8e5c-49ce-bdda-6590ce78f844}, !- Zone or ZoneList Name
  SupplyAirTemperature,                   !- Zone Cooling Design Supply Air Temperature Input Method
  14,                                     !- Zone Cooling Design Supply Air Temperature {C}
  11.11,                                  !- Zone Cooling Design Supply Air Temperature Difference {deltaC}
  SupplyAirTemperature,                   !- Zone Heating Design Supply Air Temperature Input Method
  40,                                     !- Zone Heating Design Supply Air Temperature {C}
  11.11,                                  !- Zone Heating Design Supply Air Temperature Difference {deltaC}
  0.0085,                                 !- Zone Cooling Design Supply Air Humidity Ratio {kg-H2O/kg-air}
  0.008,                                  !- Zone Heating Design Supply Air Humidity Ratio {kg-H2O/kg-air}
  ,                                       !- Zone Heating Sizing Factor
  ,                                       !- Zone Cooling Sizing Factor
  DesignDay,                              !- Cooling Design Air Flow Method
  ,                                       !- Cooling Design Air Flow Rate {m3/s}
  ,                                       !- Cooling Minimum Air Flow per Zone Floor Area {m3/s-m2}
  ,                                       !- Cooling Minimum Air Flow {m3/s}
  ,                                       !- Cooling Minimum Air Flow Fraction
  DesignDay,                              !- Heating Design Air Flow Method
  ,                                       !- Heating Design Air Flow Rate {m3/s}
  ,                                       !- Heating Maximum Air Flow per Zone Floor Area {m3/s-m2}
  ,                                       !- Heating Maximum Air Flow {m3/s}
  ,                                       !- Heating Maximum Air Flow Fraction
  ,                                       !- Design Zone Air Distribution Effectiveness in Cooling Mode
  ,                                       !- Design Zone Air Distribution Effectiveness in Heating Mode
  No,                                     !- Account for Dedicated Outdoor Air System
  NeutralSupplyAir,                       !- Dedicated Outdoor Air System Control Strategy
  autosize,                               !- Dedicated Outdoor Air Low Setpoint Temperature for Design {C}
  autosize;                               !- Dedicated Outdoor Air High Setpoint Temperature for Design {C}

OS:ZoneHVAC:EquipmentList,
  {f6f0f64d-e68d-4447-92ff-f816e3e245c9}, !- Handle
  Zone MFm ResBedroom A end_a - Story Ground Zone HVAC Equipment List, !- Name
  {a6d39f6a-8e5c-49ce-bdda-6590ce78f844}, !- Thermal Zone
  ,                                       !- Load Distribution Scheme
  {6b5c4b79-58f9-49d3-a794-aa86cf5db2e9}, !- Zone Equipment 1
  1,                                      !- Zone Equipment Cooling Sequence 1
  1;                                      !- Zone Equipment Heating or No-Load Sequence 1

OS:Space,
  {e69c43d3-39b3-4c04-8738-2597b57844e7}, !- Handle
  MFm ResBedroom B end_a - Story Ground,  !- Name
  {1ebec53e-6d9b-41a3-a054-124d61979935}, !- Space Type Name
  ,                                       !- Default Construction Set Name
  ,                                       !- Default Schedule Set Name
  -0,                                     !- Direction of Relative North {deg}
  -41.7364588818937,                      !- X Origin {m}
  -5.86211472047342,                      !- Y Origin {m}
  0,                                      !- Z Origin {m}
  {af82fa0f-cc67-4aad-9e25-99e6a241d7e6}, !- Building Story Name
  {e062ac00-4437-4ee7-834e-cffeaa67572e}; !- Thermal Zone Name

OS:Surface,
  {d324f5b5-c8f0-4b1e-a60e-a10e571a564b}, !- Handle
  Surface 7,                              !- Name
  Floor,                                  !- Surface Type
  {c0cbc384-f88d-4b70-9e63-bcdfe7dd48b4}, !- Construction Name
  {e69c43d3-39b3-4c04-8738-2597b57844e7}, !- Space Name
  Ground,                                 !- Outside Boundary Condition
  ,                                       !- Outside Boundary Condition Object
  NoSun,                                  !- Sun Exposure
  NoWind,                                 !- Wind Exposure
  ,                                       !- View Factor to Ground
  ,                                       !- Number of Vertices
  -4.2632564145606e-14, -4.44089209850063e-15, 0, !- X,Y,Z Vertex 1 {m}
  -4.2632564145606e-14, 11.7242294409468, 0, !- X,Y,Z Vertex 2 {m}
  4.57199999999995, 11.7242294409468, 0,  !- X,Y,Z Vertex 3 {m}
  4.57199999999995, -4.44089209850063e-15, 0; !- X,Y,Z Vertex 4 {m}

OS:Surface,
  {7dcf69f4-9180-4e94-b855-b41ac309abde}, !- Handle
  Surface 8,                              !- Name
  Wall,                                   !- Surface Type
  {55f5e636-34f8-4474-8e9b-7c972da2d893}, !- Construction Name
  {e69c43d3-39b3-4c04-8738-2597b57844e7}, !- Space Name
  Outdoors,                               !- Outside Boundary Condition
  ,                                       !- Outside Boundary Condition Object
  SunExposed,                             !- Sun Exposure
  WindExposed,                            !- Wind Exposure
  ,                                       !- View Factor to Ground
  ,                                       !- Number of Vertices
  -4.2632564145606e-14, 11.7242294409468, 3.048, !- X,Y,Z Vertex 1 {m}
  -4.2632564145606e-14, 11.7242294409468, 0, !- X,Y,Z Vertex 2 {m}
  -4.2632564145606e-14, -4.44089209850063e-15, 0, !- X,Y,Z Vertex 3 {m}
  -4.2632564145606e-14, -4.44089209850063e-15, 3.048; !- X,Y,Z Vertex 4 {m}

OS:Surface,
  {ca135186-1586-47e7-8e48-a3b0af1ef326}, !- Handle
  Surface 9,                              !- Name
  Wall,                                   !- Surface Type
  ,                                       !- Construction Name
  {e69c43d3-39b3-4c04-8738-2597b57844e7}, !- Space Name
  Surface,                                !- Outside Boundary Condition
  {a90e2446-7f81-400d-ae55-da113e5d1cd1}, !- Outside Boundary Condition Object
  NoSun,                                  !- Sun Exposure
  NoWind,                                 !- Wind Exposure
  ,                                       !- View Factor to Ground
  ,                                       !- Number of Vertices
  4.57199999999995, 11.7242294409468, 3.048, !- X,Y,Z Vertex 1 {m}
  4.57199999999995, 11.7242294409468, 0,  !- X,Y,Z Vertex 2 {m}
  -4.2632564145606e-14, 11.7242294409468, 0, !- X,Y,Z Vertex 3 {m}
  -4.2632564145606e-14, 11.7242294409468, 3.048; !- X,Y,Z Vertex 4 {m}

OS:Surface,
  {ebbb6480-ee89-4ed6-a8fc-ad9eac7edd8c}, !- Handle
  Surface 10,                             !- Name
  Wall,                                   !- Surface Type
  ,                                       !- Construction Name
  {e69c43d3-39b3-4c04-8738-2597b57844e7}, !- Space Name
  Surface,                                !- Outside Boundary Condition
  {2fb5a649-086f-4e0d-a718-cc740e7e4c4d}, !- Outside Boundary Condition Object
  NoSun,                                  !- Sun Exposure
  NoWind,                                 !- Wind Exposure
  ,                                       !- View Factor to Ground
  ,                                       !- Number of Vertices
  4.57199999999995, -4.44089209850063e-15, 3.048, !- X,Y,Z Vertex 1 {m}
  4.57199999999995, -4.44089209850063e-15, 0, !- X,Y,Z Vertex 2 {m}
  4.57199999999995, 11.7242294409468, 0,  !- X,Y,Z Vertex 3 {m}
  4.57199999999995, 11.7242294409468, 3.048; !- X,Y,Z Vertex 4 {m}

OS:Surface,
  {be7b17e2-fa14-4ad5-b896-fdd4a810c3c7}, !- Handle
  Surface 11,                             !- Name
  Wall,                                   !- Surface Type
  ,                                       !- Construction Name
  {e69c43d3-39b3-4c04-8738-2597b57844e7}, !- Space Name
  Surface,                                !- Outside Boundary Condition
  {18cd2486-936b-47be-ab76-ba6f96642627}, !- Outside Boundary Condition Object
  NoSun,                                  !- Sun Exposure
  NoWind,                                 !- Wind Exposure
  ,                                       !- View Factor to Ground
  ,                                       !- Number of Vertices
  -4.2632564145606e-14, -4.44089209850063e-15, 3.048, !- X,Y,Z Vertex 1 {m}
  -4.2632564145606e-14, -4.44089209850063e-15, 0, !- X,Y,Z Vertex 2 {m}
  4.57199999999995, -4.44089209850063e-15, 0, !- X,Y,Z Vertex 3 {m}
  4.57199999999995, -4.44089209850063e-15, 3.048; !- X,Y,Z Vertex 4 {m}

OS:Surface,
  {75760d92-1640-4cd6-9352-8722d7eb1431}, !- Handle
  Surface 12,                             !- Name
  RoofCeiling,                            !- Surface Type
  ,                                       !- Construction Name
  {e69c43d3-39b3-4c04-8738-2597b57844e7}, !- Space Name
  Surface,                                !- Outside Boundary Condition
  {71a24a08-f0fa-4af7-8cb7-e915600a0319}, !- Outside Boundary Condition Object
  NoSun,                                  !- Sun Exposure
  NoWind,                                 !- Wind Exposure