
OS:Version,
  {1ee8e22a-fd26-4f21-9db1-ac15ba15fa69}, !- Handle
  2.7.1;                                  !- Version Identifier

OS:WeatherFile,
  {5409d783-ec06-4f16-b26e-999afc5e272c}, !- Handle
  CA_LOS-ANGELES-DOWNTOWN-,               !- City
  -,                                      !- State Province Region
  USA,                                    !- Country
  Custom-722874,                          !- Data Source
  722874,                                 !- WMO Number
  34.03,                                  !- Latitude {deg}
  -118.3,                                 !- Longitude {deg}
  -8,                                     !- Time Zone {hr}
  56,                                     !- Elevation {m}
  file:////weather/CA_LOS-ANGELES-DOWNTOWN-USC_722874S_12.epw, !- Url
  288AE598;                               !- Checksum

OS:RunPeriodControl:DaylightSavingTime,
  {654a45e2-ffc7-4744-8213-ab6291d5faf2}, !- Handle
  2nd Sunday in March,                    !- Start Date
  1st Sunday in November;                 !- End Date

OS:YearDescription,
  {be3626a1-6250-4f06-9abd-f80ffadc0760}, !- Handle
  2015,                                   !- Calendar Year
  ,                                       !- Day of Week for Start Day
  ;                                       !- Is Leap Year

OS:Timestep,
  {8be70f1a-f5ec-468e-9b5d-13bfa0eb39aa}, !- Handle
  4;                                      !- Number of Timesteps per Hour

OS:RunPeriod,
  {6e423b6c-351e-4fc9-bd95-995adf26360f}, !- Handle
  Run Period 1,                           !- Name
  1,                                      !- Begin Month
  1,                                      !- Begin Day of Month
  12,                                     !- End Month
  30,                                     !- End Day of Month
  ,                                       !- Use Weather File Holidays and Special Days
  ,                                       !- Use Weather File Daylight Saving Period
  ,                                       !- Apply Weekend Holiday Rule
  ,                                       !- Use Weather File Rain Indicators
  ,                                       !- Use Weather File Snow Indicators
  ;                                       !- Number of Times Runperiod to be Repeated

OS:Site,
  {3ae2a06d-592e-49e1-902b-e5955f5f891c}, !- Handle
  CA_LOS-ANGELES-DOWNTOWN-_-_USA,         !- Name
  34.03,                                  !- Latitude {deg}
  -118.3,                                 !- Longitude {deg}
  -8,                                     !- Time Zone {hr}
  56,                                     !- Elevation {m}
  City;                                   !- Terrain

OS:Site:WaterMainsTemperature,
  {c9d38b87-dd07-4ff6-966f-fdf4084baf3b}, !- Handle
  Correlation,                            !- Calculation Method
  ,                                       !- Temperature Schedule Name
  17.9083333333333,                       !- Annual Average Outdoor Air Temperature {C}
  10.6;                                   !- Maximum Difference In Monthly Average Outdoor Air Temperatures {deltaC}

OS:SizingPeriod:DesignDay,
  {c930453e-22b9-47a3-aea0-e19c6450c97d}, !- Handle
  CA_LOS-ANGELES-DOWNTOWN- Ann Clg .4% Condns DB=>MWB 1, !- Name
  32.8,                                   !- Maximum Dry-Bulb Temperature {C}
  9.7,                                    !- Daily Dry-Bulb Temperature Range {deltaC}
  18.9,                                   !- Humidity Indicating Conditions at Maximum Dry-Bulb
  100654,                                 !- Barometric Pressure {Pa}
  1.5,                                    !- Wind Speed {m/s}
  0,                                      !- Wind Direction {deg}
  0,                                      !- Sky Clearness
  0,                                      !- Rain Indicator
  0,                                      !- Snow Indicator
  21,                                     !- Day of Month
  8,                                      !- Month
  SummerDesignDay,                        !- Day Type
  0,                                      !- Daylight Saving Time Indicator
  Wetbulb,                                !- Humidity Indicating Type
  ,                                       !- Humidity Indicating Day Schedule Name
  DefaultMultipliers,                     !- Dry-Bulb Temperature Range Modifier Type
  ,                                       !- Dry-Bulb Temperature Range Modifier Schedule Name
  ASHRAETau,                              !- Solar Model Indicator
  ,                                       !- Beam Solar Day Schedule Name
  ,                                       !- Diffuse Solar Day Schedule Name
  0.361,                                  !- ASHRAE Taub {dimensionless}
  2.436;                                  !- ASHRAE Taud {dimensionless}

OS:SizingPeriod:DesignDay,
  {c1a93aa1-4e64-4acb-97b8-dc85f76b065f}, !- Handle
  CA_LOS-ANGELES-DOWNTOWN- Ann Clg .4% Condns WB=>MDB 1, !- Name
  29.2,                                   !- Maximum Dry-Bulb Temperature {C}
  9.7,                                    !- Daily Dry-Bulb Temperature Range {deltaC}
  22,                                     !- Humidity Indicating Conditions at Maximum Dry-Bulb
  100654,                                 !- Barometric Pressure {Pa}
  1.5,                                    !- Wind Speed {m/s}
  0,                                      !- Wind Direction {deg}
  0,                                      !- Sky Clearness
  0,                                      !- Rain Indicator
  0,                                      !- Snow Indicator
  21,                                     !- Day of Month
  8,                                      !- Month
  SummerDesignDay,                        !- Day Type
  0,                                      !- Daylight Saving Time Indicator
  Wetbulb,                                !- Humidity Indicating Type
  ,                                       !- Humidity Indicating Day Schedule Name
  DefaultMultipliers,                     !- Dry-Bulb Temperature Range Modifier Type
  ,                                       !- Dry-Bulb Temperature Range Modifier Schedule Name
  ASHRAETau,                              !- Solar Model Indicator
  ,                                       !- Beam Solar Day Schedule Name
  ,                                       !- Diffuse Solar Day Schedule Name
  0.361,                                  !- ASHRAE Taub {dimensionless}
  2.436;                                  !- ASHRAE Taud {dimensionless}

OS:SizingPeriod:DesignDay,
  {24a8902d-7918-4c1f-94bc-07e8a4c3819b}, !- Handle
  CA_LOS-ANGELES-DOWNTOWN- Ann Htg 99.6% Condns DB 1, !- Name
  6.2,                                    !- Maximum Dry-Bulb Temperature {C}
  0,                                      !- Daily Dry-Bulb Temperature Range {deltaC}
  6.2,                                    !- Humidity Indicating Conditions at Maximum Dry-Bulb
  100654,                                 !- Barometric Pressure {Pa}
  0.2,                                    !- Wind Speed {m/s}
  0,                                      !- Wind Direction {deg}
  0,                                      !- Sky Clearness
  0,                                      !- Rain Indicator
  0,                                      !- Snow Indicator
  21,                                     !- Day of Month
  12,                                     !- Month
  WinterDesignDay,                        !- Day Type
  0,                                      !- Daylight Saving Time Indicator
  Wetbulb,                                !- Humidity Indicating Type
  ,                                       !- Humidity Indicating Day Schedule Name
  DefaultMultipliers,                     !- Dry-Bulb Temperature Range Modifier Type
  ,                                       !- Dry-Bulb Temperature Range Modifier Schedule Name
  ASHRAEClearSky;                         !- Solar Model Indicator

OS:ClimateZones,
  {f5831703-efa5-48a7-ac9f-2f81ef62bef3}, !- Handle
  ,                                       !- Active Institution
  ,                                       !- Active Year
  CEC,                                    !- Climate Zone Institution Name 1
  California Climate Zone Descriptions,   !- Climate Zone Document Name 1
  1995,                                   !- Climate Zone Document Year 1
  8;                                      !- Climate Zone Value 1

OS:SpaceType,
  {4321623b-9d1c-4f3b-8c36-033481e9061d}, !- Handle
  RtS RetailSales - DEER Pre-1975,        !- Name
  ,                                       !- Default Construction Set Name
  {fde71d91-ecb4-4708-ac12-2c03281acf1c}, !- Default Schedule Set Name
  ,                                       !- Group Rendering Name
  {ab41ef65-530f-4937-8022-8e74b773e0a6}, !- Design Specification Outdoor Air Object Name
  ,                                       !- Standards Template
  RtS,                                    !- Standards Building Type
  RetailSales;                            !- Standards Space Type

OS:SpaceType,
  {03f98943-5913-4245-9f65-39c73fd15ed1}, !- Handle
  RtS StockRoom - DEER Pre-1975,          !- Name
  ,                                       !- Default Construction Set Name
  {3e6e23dd-2f8b-474f-9121-59e18333dfad}, !- Default Schedule Set Name
  ,                                       !- Group Rendering Name
  {fe25b0e9-729a-47ac-8f0a-2a8e49650198}, !- Design Specification Outdoor Air Object Name
  ,                                       !- Standards Template
  RtS,                                    !- Standards Building Type
  StockRoom;                              !- Standards Space Type

OS:Building,
  {986582f5-f61c-4b4a-96d5-697f4ae0edf8}, !- Handle
  DEER Pre-1975|RtS,                      !- Name
  ,                                       !- Building Sector Type
  0,                                      !- North Axis {deg}
  ,                                       !- Nominal Floor to Floor Height {m}
  ,                                       !- Space Type Name
  {5646c032-b616-4510-86e0-6d468ebd31ab}, !- Default Construction Set Name
  {f6104c88-2aa2-4c45-bc9d-e43343f992da}, !- Default Schedule Set Name
  ,                                       !- Standards Number of Stories
  ,                                       !- Standards Number of Above Ground Stories
  ,                                       !- Standards Template
  RtS;                                    !- Standards Building Type

OS:BuildingStory,
  {62cf2711-5c02-440e-9a38-a790ffd5b399}, !- Handle
  Story Ground,                           !- Name
  0,                                      !- Nominal Z Coordinate {m}
  3.6576,                                 !- Nominal Floor to Floor Height {m}
  ,                                       !- Default Construction Set Name
  ,                                       !- Default Schedule Set Name
  ;                                       !- Group Rendering Name

OS:Space,
  {08eb2c2e-5475-464f-b9a2-9b26cb1198a3}, !- Handle
  RtS RetailSales A end_a - Story Ground, !- Name
  {4321623b-9d1c-4f3b-8c36-033481e9061d}, !- Space Type Name
  ,                                       !- Default Construction Set Name
  ,                                       !- Default Schedule Set Name
  -0,                                     !- Direction of Relative North {deg}
  -72.2896673114492,                      !- X Origin {m}
  -24.0965557704831,                      !- Y Origin {m}
  0,                                      !- Z Origin {m}
  {62cf2711-5c02-440e-9a38-a790ffd5b399}, !- Building Story Name
  {4cb2d38a-8bc8-47e1-a225-46902fced727}; !- Thermal Zone Name

OS:Surface,
  {c00e0e6c-ac4a-4df6-acac-26304a2d5945}, !- Handle
  Surface 1,                              !- Name
  Floor,                                  !- Surface Type
  {a8115628-f07f-46f8-a2b4-f3e68fe06579}, !- Construction Name
  {08eb2c2e-5475-464f-b9a2-9b26cb1198a3}, !- Space Name
  Ground,                                 !- Outside Boundary Condition
  ,                                       !- Outside Boundary Condition Object
  NoSun,                                  !- Sun Exposure
  NoWind,                                 !- Wind Exposure
  ,                                       !- View Factor to Ground
  ,                                       !- Number of Vertices
  -4.2632564145606e-14, -4.9737991503207e-14, 0, !- X,Y,Z Vertex 1 {m}
  -4.2632564145606e-14, 4.57199999999995, 0, !- X,Y,Z Vertex 2 {m}
  4.57200000000005, 4.57199999999995, 0,  !- X,Y,Z Vertex 3 {m}
  4.57200000000005, -4.9737991503207e-14, 0; !- X,Y,Z Vertex 4 {m}

OS:Surface,
  {6c9b262a-8f2a-460d-bccb-f2a28d3a4448}, !- Handle
  Surface 2,                              !- Name
  Wall,                                   !- Surface Type
  {af7df9b0-4774-4abd-8014-4789d0b0597d}, !- Construction Name
  {08eb2c2e-5475-464f-b9a2-9b26cb1198a3}, !- Space Name
  Outdoors,                               !- Outside Boundary Condition
  ,                                       !- Outside Boundary Condition Object
  SunExposed,                             !- Sun Exposure
  WindExposed,                            !- Wind Exposure
  ,                                       !- View Factor to Ground
  ,                                       !- Number of Vertices
  -4.2632564145606e-14, 4.57199999999995, 3.6576, !- X,Y,Z Vertex 1 {m}
  -4.2632564145606e-14, 4.57199999999995, 0, !- X,Y,Z Vertex 2 {m}
  -4.2632564145606e-14, -4.9737991503207e-14, 0, !- X,Y,Z Vertex 3 {m}
  -4.2632564145606e-14, -4.9737991503207e-14, 3.6576; !- X,Y,Z Vertex 4 {m}

OS:Surface,
  {35a807c4-c8bc-4d63-abb4-59bfe1df9d34}, !- Handle
  Surface 3,                              !- Name
  Wall,                                   !- Surface Type
  ,                                       !- Construction Name
  {08eb2c2e-5475-464f-b9a2-9b26cb1198a3}, !- Space Name
  Surface,                                !- Outside Boundary Condition
  {ca29e9d4-ccde-40b3-adee-e16306c7593e}, !- Outside Boundary Condition Object
  NoSun,                                  !- Sun Exposure
  NoWind,                                 !- Wind Exposure
  ,                                       !- View Factor to Ground
  ,                                       !- Number of Vertices
  4.57200000000005, 4.57199999999995, 3.6576, !- X,Y,Z Vertex 1 {m}
  4.57200000000005, 4.57199999999995, 0,  !- X,Y,Z Vertex 2 {m}
  -4.2632564145606e-14, 4.57199999999995, 0, !- X,Y,Z Vertex 3 {m}
  -4.2632564145606e-14, 4.57199999999995, 3.6576; !- X,Y,Z Vertex 4 {m}

OS:Surface,
  {9fbf46c5-7cf4-4c61-85b0-119c95502069}, !- Handle
  Surface 4,                              !- Name
  Wall,                                   !- Surface Type
  ,                                       !- Construction Name
  {08eb2c2e-5475-464f-b9a2-9b26cb1198a3}, !- Space Name
  Surface,                                !- Outside Boundary Condition
  {419c0f02-3c1c-4b5a-a68a-769a8aef13f9}, !- Outside Boundary Condition Object
  NoSun,                                  !- Sun Exposure
  NoWind,                                 !- Wind Exposure
  ,                                       !- View Factor to Ground
  ,                                       !- Number of Vertices
  4.57200000000005, -4.9737991503207e-14, 3.6576, !- X,Y,Z Vertex 1 {m}
  4.57200000000005, -4.9737991503207e-14, 0, !- X,Y,Z Vertex 2 {m}
  4.57200000000005, 4.57199999999995, 0,  !- X,Y,Z Vertex 3 {m}
  4.57200000000005, 4.57199999999995, 3.6576; !- X,Y,Z Vertex 4 {m}

OS:Surface,
  {5ba83c87-2ce3-4f00-af80-5a8cef02686b}, !- Handle
  Surface 5,                              !- Name
  Wall,                                   !- Surface Type
  {af7df9b0-4774-4abd-8014-4789d0b0597d}, !- Construction Name
  {08eb2c2e-5475-464f-b9a2-9b26cb1198a3}, !- Space Name
  Outdoors,                               !- Outside Boundary Condition
  ,                                       !- Outside Boundary Condition Object
  SunExposed,                             !- Sun Exposure
  WindExposed,                            !- Wind Exposure
  ,                                       !- View Factor to Ground
  ,                                       !- Number of Vertices
  -4.2632564145606e-14, -4.9737991503207e-14, 3.6576, !- X,Y,Z Vertex 1 {m}
  -4.2632564145606e-14, -4.9737991503207e-14, 0, !- X,Y,Z Vertex 2 {m}
  4.57200000000005, -4.9737991503207e-14, 0, !- X,Y,Z Vertex 3 {m}
  4.57200000000005, -4.9737991503207e-14, 3.6576; !- X,Y,Z Vertex 4 {m}

OS:Surface,
  {f94755c7-dae0-4fdb-bd8a-15b8369d165c}, !- Handle
  Surface 6,                              !- Name
  RoofCeiling,                            !- Surface Type
  {a7499dbc-df7d-4819-807d-52631314257d}, !- Construction Name
  {08eb2c2e-5475-464f-b9a2-9b26cb1198a3}, !- Space Name
  Outdoors,                               !- Outside Boundary Condition
  ,                                       !- Outside Boundary Condition Object
  SunExposed,                             !- Sun Exposure
  WindExposed,                            !- Wind Exposure
  ,                                       !- View Factor to Ground
  ,                                       !- Number of Vertices
  4.57200000000005, -4.9737991503207e-14, 3.6576, !- X,Y,Z Vertex 1 {m}
  4.57200000000005, 4.57199999999995, 3.6576, !- X,Y,Z Vertex 2 {m}
  -4.2632564145606e-14, 4.57199999999995, 3.6576, !- X,Y,Z Vertex 3 {m}
  -4.2632564145606e-14, -4.9737991503207e-14, 3.6576; !- X,Y,Z Vertex 4 {m}

OS:ThermalZone,
  {4cb2d38a-8bc8-47e1-a225-46902fced727}, !- Handle
  Zone RtS RetailSales A end_a - Story Ground, !- Name
  1,                                      !- Multiplier
  ,                                       !- Ceiling Height {m}
  ,                                       !- Volume {m3}
  ,                                       !- Floor Area {m2}
  ,                                       !- Zone Inside Convection Algorithm
  ,                                       !- Zone Outside Convection Algorithm
  ,                                       !- Zone Conditioning Equipment List Name
  {e3daa59b-d1df-4b0c-83b2-681a82b12ccf}, !- Zone Air Inlet Port List
  {c1262796-9b08-4b85-a27a-13413b43f99a}, !- Zone Air Exhaust Port List
  {f2d890bf-0f8b-47a8-a34f-208c0aaf5d01}, !- Zone Air Node Name
  {23062704-db83-4504-8b42-df3eeecbd8a2}, !- Zone Return Air Port List
  ,                                       !- Primary Daylighting Control Name
  ,                                       !- Fraction of Zone Controlled by Primary Daylighting Control
  ,                                       !- Secondary Daylighting Control Name
  ,                                       !- Fraction of Zone Controlled by Secondary Daylighting Control
  ,                                       !- Illuminance Map Name
  ,                                       !- Group Rendering Name
  {5f7878cc-eec5-4b6e-bd57-10773a1975f1}, !- Thermostat Name
  No;                                     !- Use Ideal Air Loads

OS:Node,
  {0dd7624a-2ce2-4b87-ae24-46c42f453da1}, !- Handle
  Zone RtS RetailSales A end_a - Story Ground Zone Air Node, !- Name
  {f2d890bf-0f8b-47a8-a34f-208c0aaf5d01}, !- Inlet Port
  ;                                       !- Outlet Port

OS:Connection,
  {f2d890bf-0f8b-47a8-a34f-208c0aaf5d01}, !- Handle
  {65ebaab9-2254-45dc-b78a-ea940c01785e}, !- Name
  {4cb2d38a-8bc8-47e1-a225-46902fced727}, !- Source Object
  11,                                     !- Outlet Port
  {0dd7624a-2ce2-4b87-ae24-46c42f453da1}, !- Target Object
  2;                                      !- Inlet Port

OS:PortList,
  {e3daa59b-d1df-4b0c-83b2-681a82b12ccf}, !- Handle
  {f62b94e7-d75a-4c13-87a8-45eb16fee972}, !- Name
  {4cb2d38a-8bc8-47e1-a225-46902fced727}, !- HVAC Component
  {28a94362-dccf-4c13-9de9-8f6600a1a71d}; !- Port 1

OS:PortList,
  {c1262796-9b08-4b85-a27a-13413b43f99a}, !- Handle
  {825d7f5f-8e47-4809-b091-a081a5ade28a}, !- Name
  {4cb2d38a-8bc8-47e1-a225-46902fced727}; !- HVAC Component

OS:PortList,
  {23062704-db83-4504-8b42-df3eeecbd8a2}, !- Handle
  {42c08a1f-9022-4784-92cd-753676e903ba}, !- Name
  {4cb2d38a-8bc8-47e1-a225-46902fced727}, !- HVAC Component
  {cc45d9d5-1074-4bd5-ae76-30714064e222}; !- Port 1

OS:Sizing:Zone,
  {6cb239e3-e3ed-4c29-915e-f18903ccf45a}, !- Handle
  {4cb2d38a-8bc8-47e1-a225-46902fced727}, !- Zone or ZoneList Name
  SupplyAirTemperature,                   !- Zone Cooling Design Supply Air Temperature Input Method
  14,                                     !- Zone Cooling Design Supply Air Temperature {C}
  11.11,                                  !- Zone Cooling Design Supply Air Temperature Difference {deltaC}
  SupplyAirTemperature,                   !- Zone Heating Design Supply Air Temperature Input Method
  40,                                     !- Zone Heating Design Supply Air Temperature {C}
  11.11,                                  !- Zone Heating Design Supply Air Temperature Difference {deltaC}
  0.0085,                                 !- Zone Cooling Design Supply Air Humidity Ratio {kg-H2O/kg-air}
  0.008,                                  !- Zone Heating Design Supply Air Humidity Ratio {kg-H2O/kg-air}
  ,                                       !- Zone Heating Sizing Factor
  ,                                       !- Zone Cooling Sizing Factor
  DesignDay,                              !- Cooling Design Air Flow Method
  ,                                       !- Cooling Design Air Flow Rate {m3/s}
  ,                                       !- Cooling Minimum Air Flow per Zone Floor Area {m3/s-m2}
  ,                                       !- Cooling Minimum Air Flow {m3/s}
  ,                                       !- Cooling Minimum Air Flow Fraction
  DesignDay,                              !- Heating Design Air Flow Method
  ,                                       !- Heating Design Air Flow Rate {m3/s}
  ,                                       !- Heating Maximum Air Flow per Zone Floor Area {m3/s-m2}
  ,                                       !- Heating Maximum Air Flow {m3/s}
  ,                                       !- Heating Maximum Air Flow Fraction
  ,                                       !- Design Zone Air Distribution Effectiveness in Cooling Mode
  ,                                       !- Design Zone Air Distribution Effectiveness in Heating Mode
  No,                                     !- Account for Dedicated Outdoor Air System
  NeutralSupplyAir,                       !- Dedicated Outdoor Air System Control Strategy
  autosize,                               !- Dedicated Outdoor Air Low Setpoint Temperature for Design {C}
  autosize;                               !- Dedicated Outdoor Air High Setpoint Temperature for Design {C}

OS:ZoneHVAC:EquipmentList,
  {d1950557-390c-49af-987b-cd952164255d}, !- Handle
  Zone RtS RetailSales A end_a - Story Ground Zone HVAC Equipment List, !- Name
  {4cb2d38a-8bc8-47e1-a225-46902fced727}, !- Thermal Zone
  ,                                       !- Load Distribution Scheme
  {975ffb30-49bf-4a67-aff7-f6f3d3428e40}, !- Zone Equipment 1
  1,                                      !- Zone Equipment Cooling Sequence 1
  1;                                      !- Zone Equipment Heating or No-Load Sequence 1

OS:Space,
  {fd3a0deb-4d32-486f-a78a-932171ded616}, !- Handle
  RtS RetailSales B end_a - Story Ground, !- Name
  {4321623b-9d1c-4f3b-8c36-033481e9061d}, !- Space Type Name
  ,                                       !- Default Construction Set Name
  ,                                       !- Default Schedule Set Name
  -0,                                     !- Direction of Relative North {deg}
  -72.2896673114492,                      !- X Origin {m}
  -19.5245557704831,                      !- Y Origin {m}
  0,                                      !- Z Origin {m}
  {62cf2711-5c02-440e-9a38-a790ffd5b399}, !- Building Story Name
  {6d269a1a-edcc-44ab-8936-068cd917e8af}; !- Thermal Zone Name

OS:Surface,
  {8d04b53b-1dcd-4421-a921-621dff57270c}, !- Handle
  Surface 7,                              !- Name
  Floor,                                  !- Surface Type
  {a8115628-f07f-46f8-a2b4-f3e68fe06579}, !- Construction Name
  {fd3a0deb-4d32-486f-a78a-932171ded616}, !- Space Name
  Ground,                                 !- Outside Boundary Condition
  ,                                       !- Outside Boundary Condition Object
  NoSun,                                  !- Sun Exposure
  NoWind,                                 !- Wind Exposure
  ,                                       !- View Factor to Ground
  ,                                       !- Number of Vertices
  -4.2632564145606e-14, -4.9737991503207e-14, 0, !- X,Y,Z Vertex 1 {m}
  -4.2632564145606e-14, 39.0491115409662, 0, !- X,Y,Z Vertex 2 {m}
  4.57200000000005, 39.0491115409662, 0,  !- X,Y,Z Vertex 3 {m}
  4.57200000000005, -4.9737991503207e-14, 0; !- X,Y,Z Vertex 4 {m}

OS:Surface,
  {f67bcf60-7b73-4158-b60c-a5f397eec311}, !- Handle
  Surface 8,                              !- Name
  Wall,                                   !- Surface Type
  {af7df9b0-4774-4abd-8014-4789d0b0597d}, !- Construction Name
  {fd3a0deb-4d32-486f-a78a-932171ded616}, !- Space Name
  Outdoors,                               !- Outside Boundary Condition
  ,                                       !- Outside Boundary Condition Object
  SunExposed,                             !- Sun Exposure
  WindExposed,                            !- Wind Exposure
  ,                                       !- View Factor to Ground
  ,                                       !- Number of Vertices
  -4.2632564145606e-14, 39.0491115409662, 3.6576, !- X,Y,Z Vertex 1 {m}
  -4.2632564145606e-14, 39.0491115409662, 0, !- X,Y,Z Vertex 2 {m}
  -4.2632564145606e-14, -4.9737991503207e-14, 0, !- X,Y,Z Vertex 3 {m}
  -4.2632564145606e-14, -4.9737991503207e-14, 3.6576; !- X,Y,Z Vertex 4 {m}

OS:Surface,
  {86a274e6-e4ca-40ec-b937-e9d1de3148c0}, !- Handle
  Surface 9,                              !- Name
  Wall,                                   !- Surface Type
  ,                                       !- Construction Name
  {fd3a0deb-4d32-486f-a78a-932171ded616}, !- Space Name
  Surface,                                !- Outside Boundary Condition
  {605421d9-2544-4ced-8ce4-bbaaae2c7498}, !- Outside Boundary Condition Object
  NoSun,                                  !- Sun Exposure
  NoWind,                                 !- Wind Exposure
  ,                                       !- View Factor to Ground
  ,                                       !- Number of Vertices
  4.57200000000005, 39.0491115409662, 3.6576, !- X,Y,Z Vertex 1 {m}
  4.57200000000005, 39.0491115409662, 0,  !- X,Y,Z Vertex 2 {m}
  -4.2632564145606e-14, 39.0491115409662, 0, !- X,Y,Z Vertex 3 {m}
  -4.2632564145606e-14, 39.0491115409662, 3.6576; !- X,Y,Z Vertex 4 {m}

OS:Surface,
  {f239c2ab-2469-481d-8eb2-a22a8be7fb56}, !- Handle
  Surface 10,                             !- Name
  Wall,                                   !- Surface Type
  ,                                       !- Construction Name
  {fd3a0deb-4d32-486f-a78a-932171ded616}, !- Space Name
  Surface,                                !- Outside Boundary Condition
  {0697b706-c2a2-4972-95ab-82e7acba71da}, !- Outside Boundary Condition Object
  NoSun,                                  !- Sun Exposure
  NoWind,                                 !- Wind Exposure
  ,                                       !- View Factor to Ground
  ,                                       !- Number of Vertices
  4.57200000000005, -4.9737991503207e-14, 3.6576, !- X,Y,Z Vertex 1 {m}
  4.57200000000005, -4.9737991503207e-14, 0, !- X,Y,Z Vertex 2 {m}
  4.57200000000005, 39.0491115409662, 0,  !- X,Y,Z Vertex 3 {m}
  4.57200000000005, 39.0491115409662, 3.6576; !- X,Y,Z Vertex 4 {m}

OS:Surface,
  {ca29e9d4-ccde-40b3-adee-e16306c7593e}, !- Handle
  Surface 11,                             !- Name
  Wall,                                   !- Surface Type
  ,                                       !- Construction Name
  {fd3a0deb-4d32-486f-a78a-932171ded616}, !- Space Name
  Surface,                                !- Outside Boundary Condition
  {35a807c4-c8bc-4d63-abb4-59bfe1df9d34}, !- Outside Boundary Condition Object
  NoSun,                                  !- Sun Exposure
  NoWind,                                 !- Wind Exposure
  ,                                       !- View Factor to Ground
  ,                                       !- Number of Vertices
  -4.2632564145606e-14, -4.9737991503207e-14, 3.6576, !- X,Y,Z Vertex 1 {m}
  -4.2632564145606e-14, -4.9737991503207e-14, 0, !- X,Y,Z Vertex 2 {m}
  4.57200000000005, -4.9737991503207e-14, 0, !- X,Y,Z Vertex 3 {m}
  4.57200000000005, -4.9737991503207e-14, 3.6576; !- X,Y,Z Vertex 4 {m}

OS:Surface,
  {5e6e56a4-820f-4789-bccb-f4e991cfadcf}, !- Handle
  Surface 12,                             !- Name
  RoofCeiling,                            !- Surface Type
  {a7499dbc-df7d-4819-807d-52631314257d}, !- Construction Name
  {fd3a0deb-4d32-486f-a78a-932171ded616}, !- Space Name
  Outdoors,                               !- Outside Boundary Condition
  ,                                       !- Outside Boundary Condition Object
  SunExposed,                             !- Sun Exposure
  WindExposed,                            !- Wind Exposure
  ,                                       !- View Factor to Ground
  ,                                       !- Number of Vertices
  4.57200000000005, -4.9737991503207e-14, 3.6576, !- X,Y,Z Vertex 1 {m}
  4.57200000000005, 39.0491115409662, 3.6576, !- X,Y,Z Vertex 2 {m}
  -4.2632564145606e-14, 39.0491115409662, 3.6576, !- X,Y,Z Vertex 3 {m}
  -4.2632564145606e-14, -4.9737991503207e-14, 3.6576; !- X,Y,Z Vertex 4 {m}

OS:ThermalZone,
  {6d269a1a-edcc-44ab-8936-068cd917e8af}, !- Handle
  Zone RtS RetailSales B end_a - Story Ground, !- Name
  1,                                      !- Multiplier