
OS:Version,
  {496ce8d5-97cd-40d6-a23e-8c4d349de1b9}, !- Handle
  3.6.1;                                  !- Version Identifier

OS:Facility,
  {e82d3efe-e3a2-4a18-a479-0f53b431f825}; !- Handle

OS:Site,
  {4135a6ac-dc7a-47e5-90ba-0f03a5a013f6}, !- Handle
  Chicago Ohare Intl Ap,                  !- Name
  41.98,                                  !- Latitude {deg}
  -87.92,                                 !- Longitude {deg}
  -6,                                     !- Time Zone {hr}
  201,                                    !- Elevation {m}
  City;                                   !- Terrain

OS:SimulationControl,
  {19c0c9c8-db8a-47c7-af59-a9cfe7972919}, !- Handle
  ,                                       !- Do Zone Sizing Calculation
  ,                                       !- Do System Sizing Calculation
  ,                                       !- Do Plant Sizing Calculation
  No,                                     !- Run Simulation for Sizing Periods
  Yes,                                    !- Run Simulation for Weather File Run Periods
  ,                                       !- Loads Convergence Tolerance Value {W}
  ,                                       !- Temperature Convergence Tolerance Value {deltaC}
  ,                                       !- Solar Distribution
  ,                                       !- Maximum Number of Warmup Days
  ,                                       !- Minimum Number of Warmup Days
  No,                                     !- Do HVAC Sizing Simulation for Sizing Periods
  1;                                      !- Maximum Number of HVAC Sizing Simulation Passes

OS:Sizing:Parameters,
  {95e23b68-78c4-4611-989c-381dccde7581}, !- Handle
  1.25,                                   !- Heating Sizing Factor
  1.15;                                   !- Cooling Sizing Factor

OS:Timestep,
  {48d322f0-10ff-410d-bf95-edb4fdc7925c}, !- Handle
  4;                                      !- Number of Timesteps per Hour

OS:ShadowCalculation,
  {5b45e72e-daab-4fc8-8a86-4000c327ef85}, !- Handle
  PolygonClipping,                        !- Shading Calculation Method
  ,                                       !- Shading Calculation Update Frequency Method
  20,                                     !- Shading Calculation Update Frequency
  15000,                                  !- Maximum Figures in Shadow Overlap Calculations
  ,                                       !- Polygon Clipping Algorithm
  512,                                    !- Pixel Counting Resolution
  ,                                       !- Sky Diffuse Modeling Algorithm
  No,                                     !- Output External Shading Calculation Results
  No,                                     !- Disable Self-Shading Within Shading Zone Groups
  No;                                     !- Disable Self-Shading From Shading Zone Groups to Other Zones

OS:HeatBalanceAlgorithm,
  {12ecb9e5-7071-4875-b534-7a397c1b83bb}, !- Handle
  ConductionTransferFunction,             !- Algorithm
  200;                                    !- Surface Temperature Upper Limit {C}

OS:RunPeriod,
  {c976bf65-fe54-42e6-a13d-be0c9520e72c}, !- Handle
  Run Period 1,                           !- Name
  1,                                      !- Begin Month
  1,                                      !- Begin Day of Month
  12,                                     !- End Month
  31,                                     !- End Day of Month
  ,                                       !- Use Weather File Holidays and Special Days
  ,                                       !- Use Weather File Daylight Saving Period
  ,                                       !- Apply Weekend Holiday Rule
  ,                                       !- Use Weather File Rain Indicators
  ,                                       !- Use Weather File Snow Indicators
  ;                                       !- Number of Times Runperiod to be Repeated

OS:LifeCycleCost:Parameters,
  {35077595-3921-44c3-aade-a50518e95ae0}, !- Handle
  ,                                       !- Analysis Type
  ,                                       !- Discounting Convention
  ,                                       !- Inflation Approach
  ,                                       !- Real Discount Rate
  ,                                       !- Nominal Discount Rate
  ,                                       !- Inflation
  ,                                       !- Base Date Month
  ,                                       !- Base Date Year
  ,                                       !- Service Date Month
  ,                                       !- Service Date Year
  ;                                       !- Length of Study Period in Years

OS:Site:WaterMainsTemperature,
  {e37f7271-4ff0-4a61-9281-037ac8d8f67c}, !- Handle
  Correlation,                            !- Calculation Method
  ,                                       !- Temperature Schedule Name
  12.9466666666667,                       !- Annual Average Outdoor Air Temperature {C}
  25.76;                                  !- Maximum Difference In Monthly Average Outdoor Air Temperatures {deltaC}

OS:ClimateZones,
  {95fdc701-8b2b-4a85-9865-a0559d4224ac}, !- Handle
  ASHRAE,                                 !- Climate Zone Institution Name 1
  ANSI/ASHRAE Standard 169,               !- Climate Zone Document Name 1
  2006,                                   !- Climate Zone Document Year 1
  ASHRAE 169-2013-5A,                     !- Climate Zone Value 1
  CEC,                                    !- Climate Zone Institution Name 2
  California Climate Zone Descriptions,   !- Climate Zone Document Name 2
  1995,                                   !- Climate Zone Document Year 2
  ;                                       !- Climate Zone Value 2

OS:Building,
  {de9609dc-41d4-476a-ae87-fd0a91793402}, !- Handle
  ComStock DOE Ref Pre-1980|SmallOffice,  !- Name
  ,                                       !- Building Sector Type
  ,                                       !- North Axis {deg}
  ,                                       !- Nominal Floor to Floor Height {m}
  ,                                       !- Space Type Name
  {2815242b-a460-405c-915a-7ca295372af6}, !- Default Construction Set Name
  {a187b4b3-676b-45b0-85ff-f355290970c0}, !- Default Schedule Set Name
  ,                                       !- Standards Number of Stories
  ,                                       !- Standards Number of Above Ground Stories
  ,                                       !- Standards Template
  Office;                                 !- Standards Building Type

OS:AdditionalProperties,
  {5ebd8678-b675-4a8c-8ae6-82439605cca9}, !- Handle
  {de9609dc-41d4-476a-ae87-fd0a91793402}, !- Object Name
  grid_region,                            !- Feature Name 1
  String,                                 !- Feature Data Type 1
  RFCEc,                                  !- Feature Value 1
  hvac_system_type,                       !- Feature Name 2
  String,                                 !- Feature Data Type 2
  Residential AC with residential forced air furnace, !- Feature Value 2
  wall_as_constructed_template,           !- Feature Name 3
  String,                                 !- Feature Data Type 3
  ComStock DOE Ref Pre-1980,              !- Feature Value 3
  wall_template,                          !- Feature Name 4
  String,                                 !- Feature Data Type 4
  ComStock DOE Ref Pre-1980,              !- Feature Value 4
  roof_as_constructed_template,           !- Feature Name 5
  String,                                 !- Feature Data Type 5
  ComStock DOE Ref Pre-1980,              !- Feature Value 5
  roof_template,                          !- Feature Name 6
  String,                                 !- Feature Data Type 6
  ComStock DOE Ref Pre-1980,              !- Feature Value 6
  exterior_lighting_as_constructed_template, !- Feature Name 7
  String,                                 !- Feature Data Type 7
  ComStock DOE Ref Pre-1980,              !- Feature Value 7
  exterior_lighting_template,             !- Feature Name 8
  String,                                 !- Feature Data Type 8
  ComStock 90.1-2007,                     !- Feature Value 8
  interior_equipment_as_constructed_template, !- Feature Name 9
  String,                                 !- Feature Data Type 9
  ComStock DOE Ref Pre-1980,              !- Feature Value 9
  interior_equipment_template,            !- Feature Name 10
  String,                                 !- Feature Data Type 10
  ComStock 90.1-2007,                     !- Feature Value 10
  service_water_heating_as_constructed_template, !- Feature Name 11
  String,                                 !- Feature Data Type 11
  ComStock DOE Ref Pre-1980,              !- Feature Value 11
  service_water_heating_template,         !- Feature Name 12
  String,                                 !- Feature Data Type 12
  ComStock 90.1-2013,                     !- Feature Value 12
  hvac_as_constructed_template,           !- Feature Name 13
  String,                                 !- Feature Data Type 13
  ComStock DOE Ref Pre-1980,              !- Feature Value 13
  hvac_template,                          !- Feature Name 14
  String,                                 !- Feature Data Type 14
  ComStock 90.1-2004;                     !- Feature Value 14

OS:SpaceType,
  {833513df-783e-495d-b1d1-5c2896603dc8}, !- Handle
  Office WholeBuilding - Sm Office - ComStock DOE Ref Pre-1980, !- Name
  ,                                       !- Default Construction Set Name
  {2b756040-5e23-404e-9f76-180681c48299}, !- Default Schedule Set Name
  {9e4d9a65-9dc4-4cd7-ad1e-eee2def12507}, !- Group Rendering Name
  {4a3fc4fc-4df4-473a-9006-f3ea646596b9}, !- Design Specification Outdoor Air Object Name
  ,                                       !- Standards Template
  Office,                                 !- Standards Building Type
  WholeBuilding - Sm Office;              !- Standards Space Type

OS:Rendering:Color,
  {9e4d9a65-9dc4-4cd7-ad1e-eee2def12507}, !- Handle
  Office WholeBuilding - Sm Office,       !- Name
  120,                                    !- Rendering Red Value
  230,                                    !- Rendering Green Value
  199;                                    !- Rendering Blue Value

OS:BuildingStory,
  {f1ec1a91-0e2c-4d8e-aca8-c82372dd42b5}, !- Handle
  Story Ground,                           !- Name
  0,                                      !- Nominal Z Coordinate {m}
  3.048,                                  !- Nominal Floor to Floor Height {m}
  ,                                       !- Default Construction Set Name
  ,                                       !- Default Schedule Set Name
  ;                                       !- Group Rendering Name

OS:Space,
  {3e269115-dd4a-4dc2-bd0e-40d458ab7503}, !- Handle
  Office WholeBuilding - Sm Office  - Story Ground, !- Name
  {833513df-783e-495d-b1d1-5c2896603dc8}, !- Space Type Name
  ,                                       !- Default Construction Set Name
  ,                                       !- Default Schedule Set Name
  -0,                                     !- Direction of Relative North {deg}
  4.81931115409661,                       !- X Origin {m}
  -4.81931115409661,                      !- Y Origin {m}
  0,                                      !- Z Origin {m}
  {f1ec1a91-0e2c-4d8e-aca8-c82372dd42b5}, !- Building Story Name
  {3ee98f10-c7a7-4825-9127-7fc7dcb290eb}; !- Thermal Zone Name

OS:Surface,
  {4be9d4aa-9d2f-4af6-bfbb-7315c039309a}, !- Handle
  Surface 1,                              !- Name
  Floor,                                  !- Surface Type
  {66a016df-5983-4400-a1b9-23a12e5dd954}, !- Construction Name
  {3e269115-dd4a-4dc2-bd0e-40d458ab7503}, !- Space Name
  GroundFCfactorMethod,                   !- Outside Boundary Condition
  ,                                       !- Outside Boundary Condition Object
  NoSun,                                  !- Sun Exposure
  NoWind,                                 !- Wind Exposure
  ,                                       !- View Factor to Ground
  ,                                       !- Number of Vertices
  0, 8.88178419700125e-16, 0,             !- X,Y,Z Vertex 1 {m}
  -9.63862230819322, 8.88178419700125e-16, 0, !- X,Y,Z Vertex 2 {m}
  -9.63862230819322, 9.63862230819322, 0, !- X,Y,Z Vertex 3 {m}
  0, 9.63862230819322, 0;                 !- X,Y,Z Vertex 4 {m}

OS:Surface,
  {5c3a1546-9f86-4625-bfae-f06f2c1ce7ee}, !- Handle
  Surface 2,                              !- Name
  Wall,                                   !- Surface Type
  ,                                       !- Construction Name
  {3e269115-dd4a-4dc2-bd0e-40d458ab7503}, !- Space Name
  Outdoors,                               !- Outside Boundary Condition
  ,                                       !- Outside Boundary Condition Object
  SunExposed,                             !- Sun Exposure
  WindExposed,                            !- Wind Exposure
  ,                                       !- View Factor to Ground
  ,                                       !- Number of Vertices
  -9.63862230819322, 8.88178419700125e-16, 3.048, !- X,Y,Z Vertex 1 {m}
  -9.63862230819322, 8.88178419700125e-16, 0, !- X,Y,Z Vertex 2 {m}
  0, 8.88178419700125e-16, 0,             !- X,Y,Z Vertex 3 {m}
  0, 8.88178419700125e-16, 3.048;         !- X,Y,Z Vertex 4 {m}

OS:Surface,
  {72696604-d58a-478b-9b67-726fe8b44e06}, !- Handle
  Surface 3,                              !- Name
  Wall,                                   !- Surface Type
  ,                                       !- Construction Name
  {3e269115-dd4a-4dc2-bd0e-40d458ab7503}, !- Space Name
  Outdoors,                               !- Outside Boundary Condition
  ,                                       !- Outside Boundary Condition Object
  SunExposed,                             !- Sun Exposure
  WindExposed,                            !- Wind Exposure
  ,                                       !- View Factor to Ground
  ,                                       !- Number of Vertices
  -9.63862230819322, 9.63862230819322, 3.048, !- X,Y,Z Vertex 1 {m}
  -9.63862230819322, 9.63862230819322, 0, !- X,Y,Z Vertex 2 {m}
  -9.63862230819322, 8.88178419700125e-16, 0, !- X,Y,Z Vertex 3 {m}
  -9.63862230819322, 8.88178419700125e-16, 3.048; !- X,Y,Z Vertex 4 {m}

OS:Surface,
  {f0d052c4-cd41-4363-8a82-38c39cd09016}, !- Handle
  Surface 4,                              !- Name
  Wall,                                   !- Surface Type
  ,                                       !- Construction Name
  {3e269115-dd4a-4dc2-bd0e-40d458ab7503}, !- Space Name
  Outdoors,                               !- Outside Boundary Condition
  ,                                       !- Outside Boundary Condition Object
  SunExposed,                             !- Sun Exposure
  WindExposed,                            !- Wind Exposure
  ,                                       !- View Factor to Ground
  ,                                       !- Number of Vertices
  0, 9.63862230819322, 3.048,             !- X,Y,Z Vertex 1 {m}
  0, 9.63862230819322, 0,                 !- X,Y,Z Vertex 2 {m}
  -9.63862230819322, 9.63862230819322, 0, !- X,Y,Z Vertex 3 {m}
  -9.63862230819322, 9.63862230819322, 3.048; !- X,Y,Z Vertex 4 {m}

OS:Surface,
  {a6b668ef-e512-4eed-b07c-60399e3d9252}, !- Handle
  Surface 5,                              !- Name
  Wall,                                   !- Surface Type
  ,                                       !- Construction Name
  {3e269115-dd4a-4dc2-bd0e-40d458ab7503}, !- Space Name
  Outdoors,                               !- Outside Boundary Condition
  ,                                       !- Outside Boundary Condition Object
  SunExposed,                             !- Sun Exposure
  WindExposed,                            !- Wind Exposure
  ,                                       !- View Factor to Ground
  ,                                       !- Number of Vertices
  0, 8.88178419700125e-16, 3.048,         !- X,Y,Z Vertex 1 {m}
  0, 8.88178419700125e-16, 0,             !- X,Y,Z Vertex 2 {m}
  0, 9.63862230819322, 0,                 !- X,Y,Z Vertex 3 {m}
  0, 9.63862230819322, 3.048;             !- X,Y,Z Vertex 4 {m}

OS:Surface,
  {fff85b66-fbf1-469d-9dc1-069a5fcb4a2c}, !- Handle
  Surface 6,                              !- Name
  RoofCeiling,                            !- Surface Type
  {d0011ad0-b0d0-430d-a9e3-1fe9b5a3bc04}, !- Construction Name
  {3e269115-dd4a-4dc2-bd0e-40d458ab7503}, !- Space Name
  Adiabatic,                              !- Outside Boundary Condition
  ,                                       !- Outside Boundary Condition Object
  NoSun,                                  !- Sun Exposure
  NoWind,                                 !- Wind Exposure
  ,                                       !- View Factor to Ground
  ,                                       !- Number of Vertices
  0, 9.63862230819322, 3.048,             !- X,Y,Z Vertex 1 {m}
  -9.63862230819322, 9.63862230819322, 3.048, !- X,Y,Z Vertex 2 {m}
  -9.63862230819322, 8.88178419700125e-16, 3.048, !- X,Y,Z Vertex 3 {m}
  0, 8.88178419700125e-16, 3.048;         !- X,Y,Z Vertex 4 {m}

OS:ThermalZone,
  {3ee98f10-c7a7-4825-9127-7fc7dcb290eb}, !- Handle
  Zone Office WholeBuilding - Sm Office  - Story Ground, !- Name
  1,                                      !- Multiplier
  ,                                       !- Ceiling Height {m}
  ,                                       !- Volume {m3}
  ,                                       !- Floor Area {m2}
  ,                                       !- Zone Inside Convection Algorithm
  ,                                       !- Zone Outside Convection Algorithm
  ,                                       !- Zone Conditioning Equipment List Name
  {26939c2e-68f7-49e2-aabc-c2de2557578c}, !- Zone Air Inlet Port List
  {3de4802e-2eed-4188-aa7c-76e59df25af2}, !- Zone Air Exhaust Port List
  {450c8b93-982b-4a03-9bbb-25c1a10d35a9}, !- Zone Air Node Name
  {32ad331b-8c2e-4fbe-b691-0b6f235cf534}, !- Zone Return Air Port List
  ,                                       !- Primary Daylighting Control Name
  ,                                       !- Fraction of Zone Controlled by Primary Daylighting Control
  ,                                       !- Secondary Daylighting Control Name
  ,                                       !- Fraction of Zone Controlled by Secondary Daylighting Control
  ,                                       !- Illuminance Map Name
  ,                                       !- Group Rendering Name
  {4443f9cf-2bb6-454e-97b3-b4b2e30327cf}, !- Thermostat Name
  No;                                     !- Use Ideal Air Loads

OS:Node,
  {50c4cbc3-43d6-4445-a9cc-f80ff34655b5}, !- Handle
  Zone Office WholeBuilding - Sm Office  - Story Ground Zone Air Node, !- Name
  {450c8b93-982b-4a03-9bbb-25c1a10d35a9}, !- Inlet Port
  ;                                       !- Outlet Port

OS:Connection,
  {450c8b93-982b-4a03-9bbb-25c1a10d35a9}, !- Handle
  {3ee98f10-c7a7-4825-9127-7fc7dcb290eb}, !- Source Object
  11,                                     !- Outlet Port
  {50c4cbc3-43d6-4445-a9cc-f80ff34655b5}, !- Target Object
  2;                                      !- Inlet Port

OS:PortList,
  {26939c2e-68f7-49e2-aabc-c2de2557578c}, !- Handle
  {3ee98f10-c7a7-4825-9127-7fc7dcb290eb}, !- HVAC Component
  {e767ae44-06f8-4bce-b02a-eb12518c0356}; !- Port 1

OS:PortList,
  {3de4802e-2eed-4188-aa7c-76e59df25af2}, !- Handle
  {3ee98f10-c7a7-4825-9127-7fc7dcb290eb}; !- HVAC Component

OS:PortList,
  {32ad331b-8c2e-4fbe-b691-0b6f235cf534}, !- Handle
  {3ee98f10-c7a7-4825-9127-7fc7dcb290eb}, !- HVAC Component
  {d0549da7-3d2e-412d-b807-757caae4a024}; !- Port 1

OS:Sizing:Zone,
  {091228d9-73f7-41b2-9cb8-78d3b625e073}, !- Handle
  {3ee98f10-c7a7-4825-9127-7fc7dcb290eb}, !- Zone or ZoneList Name
  SupplyAirTemperature,                   !- Zone Cooling Design Supply Air Temperature Input Method
  14,                                     !- Zone Cooling Design Supply Air Temperature {C}
  11.11,                                  !- Zone Cooling Design Supply Air Temperature Difference {deltaC}
  SupplyAirTemperature,                   !- Zone Heating Design Supply Air Temperature Input Method
  40,                                     !- Zone Heating Design Supply Air Temperature {C}
  11.11,                                  !- Zone Heating Design Supply Air Temperature Difference {deltaC}
  0.0085,                                 !- Zone Cooling Design Supply Air Humidity Ratio {kg-H2O/kg-air}
  0.008,                                  !- Zone Heating Design Supply Air Humidity Ratio {kg-H2O/kg-air}
  ,                                       !- Zone Heating Sizing Factor
  ,                                       !- Zone Cooling Sizing Factor
  DesignDay,                              !- Cooling Design Air Flow Method
  ,                                       !- Cooling Design Air Flow Rate {m3/s}
  ,                                       !- Cooling Minimum Air Flow per Zone Floor Area {m3/s-m2}
  ,                                       !- Cooling Minimum Air Flow {m3/s}
  ,                                       !- Cooling Minimum Air Flow Fraction
  DesignDay,                              !- Heating Design Air Flow Method
  ,                                       !- Heating Design Air Flow Rate {m3/s}
  ,                                       !- Heating Maximum Air Flow per Zone Floor Area {m3/s-m2}
  ,                                       !- Heating Maximum Air Flow {m3/s}
  ,                                       !- Heating Maximum Air Flow Fraction
  No,                                     !- Account for Dedicated Outdoor Air System
  NeutralSupplyAir,                       !- Dedicated Outdoor Air System Control Strategy
  autosize,                               !- Dedicated Outdoor Air Low Setpoint Temperature for Design {C}
  autosize,                               !- Dedicated Outdoor Air High Setpoint Temperature for Design {C}
  Sensible Load Only No Latent Load,      !- Zone Load Sizing Method
  HumidityRatioDifference,                !- Zone Latent Cooling Design Supply Air Humidity Ratio Input Method
  ,                                       !- Zone Dehumidification Design Supply Air Humidity Ratio {kgWater/kgDryAir}
  0.005,                                  !- Zone Cooling Design Supply Air Humidity Ratio Difference {kgWater/kgDryAir}
  HumidityRatioDifference,                !- Zone Latent Heating Design Supply Air Humidity Ratio Input Method
  ,                                       !- Zone Humidification Design Supply Air Humidity Ratio {kgWater/kgDryAir}
  0.005;                                  !- Zone Humidification Design Supply Air Humidity Ratio Difference {kgWater/kgDryAir}

OS:ZoneHVAC:EquipmentList,
  {cb374b9a-a164-488f-a9aa-fc4eab5d3957}, !- Handle
  Zone Office WholeBuilding - Sm Office  - Story Ground Zone HVAC Equipment List, !- Name
  {3ee98f10-c7a7-4825-9127-7fc7dcb290eb}, !- Thermal Zone
  ,                                       !- Load Distribution Scheme
  {8a9587c0-b4ff-4a74-941d-400fbdcca04f}, !- Zone Equipment 1
  1,                                      !- Zone Equipment Cooling Sequence 1
  1,                                      !- Zone Equipment Heating or No-Load Sequence 1
  ,                                       !- Zone Equipment Sequential Cooling Fraction Schedule Name 1
  ;                                       !- Zone Equipment Sequential Heating Fraction Schedule Name 1

OS:BuildingStory,
  {af4c7b43-03c5-43bd-9642-96c966474ad6}, !- Handle
  Story Mid,                              !- Name
  3.048,                                  !- Nominal Z Coordinate {m}
  3.048,                                  !- Nominal Floor to Floor Height {m}
  ,                                       !- Default Construction Set Name
  ,                                       !- Default Schedule Set Name
  ;                                       !- Group Rendering Name

OS:Space,
  {0ca51c83-d565-4e1a-a946-8c78b00b056e}, !- Handle
  Office WholeBuilding - Sm Office  - Story Mid, !- Name
  {833513df-783e-495d-b1d1-5c2896603dc8}, !- Space Type Name
  ,                                       !- Default Construction Set Name
  ,                                       !- Default Schedule Set Name
  -0,                                     !- Direction of Relative North {deg}
  4.81931115409661,                       !- X Origin {m}
  -4.81931115409661,                      !- Y Origin {m}
  3.048,                                  !- Z Origin {m}
  {af4c7b43-03c5-43bd-9642-96c966474ad6}, !- Building Story Name
  {1fc3c8dc-d874-465f-aceb-96627abfcdf8}; !- Thermal Zone Name

OS:Surface,
  {bf7c9d84-ee2e-4fdf-bd02-ffe06ebc3229}, !- Handle
  Surface 7,                              !- Name
  Floor,                                  !- Surface Type
  {f711c980-a3f2-441c-a1ad-dec0d082e96c}, !- Construction Name
  {0ca51c83-d565-4e1a-a946-8c78b00b056e}, !- Space Name
  Adiabatic,                              !- Outside Boundary Condition
  ,                                       !- Outside Boundary Condition Object
  NoSun,                                  !- Sun Exposure
  NoWind,                                 !- Wind Exposure
  ,                                       !- View Factor to Ground
  ,                                       !- Number of Vertices
  0, 8.88178419700125e-16, 0,             !- X,Y,Z Vertex 1 {m}
  -9.63862230819322, 8.88178419700125e-16, 0, !- X,Y,Z Vertex 2 {m}
  -9.63862230819322, 9.63862230819322, 0, !- X,Y,Z Vertex 3 {m}
  0, 9.63862230819322, 0;                 !- X,Y,Z Vertex 4 {m}

OS:Surface,
  {0cfcb8ee-19e4-4e30-866c-8f32e0bd22b6}, !- Handle
  Surface 8,                              !- Name
  Wall,                                   !- Surface Type
  ,                                       !- Construction Name
  {0ca51c83-d565-4e1a-a946-8c78b00b056e}, !- Space Name
  Outdoors,                               !- Outside Boundary Condition
  ,                                       !- Outside Boundary Condition Object
  SunExposed,                             !- Sun Exposure
  WindExposed,                            !- Wind Exposure
  ,                                       !- View Factor to Ground
  ,                                       !- Number of Vertices
  -9.63862230819322, 8.88178419700125e-16, 3.048, !- X,Y,Z Vertex 1 {m}
  -9.63862230819322, 8.88178419700125e-16, 0, !- X,Y,Z Vertex 2 {m}
  0, 8.88178419700125e-16, 0,             !- X,Y,Z Vertex 3 {m}
  0, 8.88178419700125e-16, 3.048;         !- X,Y,Z Vertex 4 {m}

OS:Surface,
  {51108e5f-e1ea-418d-b112-2fdb3686d2e6}, !- Handle
  Surface 9,                              !- Name
  Wall,                                   !- Surface Type
  ,                                       !- Construction Name
  {0ca51c83-d565-4e1a-a946-8c78b00b056e}, !- Space Name
  Outdoors,                               !- Outside Boundary Condition
  ,                                       !- Outside Boundary Condition Object
  SunExposed,                             !- Sun Exposure
  WindExposed,                            !- Wind Exposure
  ,                                       !- View Factor to Ground
  ,                                       !- Number of Vertices
  -9.63862230819322, 9.63862230819322, 3.048, !- X,Y,Z Vertex 1 {m}
  -9.63862230819322, 9.63862230819322, 0, !- X,Y,Z Vertex 2 {m}
  -9.63862230819322, 8.88178419700125e-16, 0, !- X,Y,Z Vertex 3 {m}
  -9.63862230819322, 8.88178419700125e-16, 3.048; !- X,Y,Z Vertex 4 {m}

OS:Surface,
  {c185dfe5-204a-42f6-8974-64dda7f6a82b}, !- Handle
  Surface 10,                             !- Name
  Wall,                                   !- Surface Type
  ,                                       !- Construction Name
  {0ca51c83-d565-4e1a-a946-8c78b00b056e}, !- Space Name
  Outdoors,                               !- Outside Boundary Condition
  ,                                       !- Outside Boundary Condition Object
  SunExposed,                             !- Sun Exposure
  WindExposed,                            !- Wind Exposure
  ,                                       !- View Factor to Ground
  ,                                       !- Number of Vertices
  0, 9.63862230819322, 3.048,             !- X,Y,Z Vertex 1 {m}
  0, 9.63862230819322, 0,                 !- X,Y,Z Vertex 2 {m}
  -9.63862230819322, 9.63862230819322, 0, !- X,Y,Z Vertex 3 {m}
  -9.63862230819322, 9.63862230819322, 3.048; !- X,Y,Z Vertex 4 {m}

OS:Surface,
  {bece7764-2182-4bec-b4c1-490e39df26a1}, !- Handle
  Surface 11,                             !- Name
  Wall,                                   !- Surface Type
  ,                                       !- Construction Name
  {0ca51c83-d565-4e1a-a946-8c78b00b056e}, !- Space Name
  Outdoors,                               !- Outside Boundary Condition
  ,                                       !- Outside Boundary Condition Object
  SunExposed,                             !- Sun Exposure
  WindExposed,                            !- Wind Exposure
  ,                                       !- View Factor to Ground
  ,                                       !- Number of Vertices
  0, 8.88178419700125e-16, 3.048,         !- X,Y,Z Vertex 1 {m}
  0, 8.88178419700125e-16, 0,             !- X,Y,Z Vertex 2 {m}
  0, 9.63862230819322, 0,                 !- X,Y,Z Vertex 3 {m}
  0, 9.63862230819322, 3.048;             !- X,Y,Z Vertex 4 {m}

OS:Surface,
  {3b786c9d-d5d8-40be-b61c-1107867977ea}, !- Handle
  Surface 12,                             !- Name
  RoofCeiling,                            !- Surface Type
  {d0011ad0-b0d0-430d-a9e3-1fe9b5a3bc04}, !- Construction Name
  {0ca51c83-d565-4e1a-a946-8c78b00b056e}, !- Space Name