
OS:Version,
  {6c481f0f-a4ac-4f63-9da4-3c916832ea41}, !- Handle
  3.7.0;                                  !- Version Identifier

OS:RunPeriodControl:DaylightSavingTime,
  {34212440-8e83-4b53-aaef-915c7a717419}, !- Handle
  2nd Sunday in March,                    !- Start Date
  1st Sunday in November;                 !- End Date

OS:YearDescription,
  {67b1d29a-609b-4f4a-b2ea-b276af4a349b}, !- Handle
  2015,                                   !- Calendar Year
  ,                                       !- Day of Week for Start Day
  ;                                       !- Is Leap Year

OS:Timestep,
  {96c800c4-a02a-4241-b960-8c26377572f2}, !- Handle
  4;                                      !- Number of Timesteps per Hour

OS:RunPeriod,
  {6b3dadf3-564f-4f19-b282-f8dec3f0dea1}, !- Handle
  Run Period 1,                           !- Name
  1,                                      !- Begin Month
  1,                                      !- Begin Day of Month
  12,                                     !- End Month
  30,                                     !- End Day of Month
  ,                                       !- Use Weather File Holidays and Special Days
  ,                                       !- Use Weather File Daylight Saving Period
  ,                                       !- Apply Weekend Holiday Rule
  ,                                       !- Use Weather File Rain Indicators
  ,                                       !- Use Weather File Snow Indicators
  ;                                       !- Number of Times Runperiod to be Repeated

OS:Site,
  {82017d5e-6da1-44ef-9899-6f588a3bdd65}, !- Handle
  CA_LOS-ANGELES-DOWNTOWN-_-_USA,         !- Name
  34.03,                                  !- Latitude {deg}
  -118.3,                                 !- Longitude {deg}
  -8,                                     !- Time Zone {hr}
  56,                                     !- Elevation {m}
  City;                                   !- Terrain

OS:Site:WaterMainsTemperature,
  {39affd60-6bb1-4daf-8a55-bae4e1affaa5}, !- Handle
  Correlation,                            !- Calculation Method
  ,                                       !- Temperature Schedule Name
  17.9083333333333,                       !- Annual Average Outdoor Air Temperature {C}
  10.6;                                   !- Maximum Difference In Monthly Average Outdoor Air Temperatures {deltaC}

OS:SizingPeriod:DesignDay,
  {27b73fdd-57a5-4311-be22-0a377fe312d1}, !- Handle
  CA_LOS-ANGELES-DOWNTOWN- Ann Clg .4% Condns DB=>MWB 1, !- Name
  32.8,                                   !- Maximum Dry-Bulb Temperature {C}
  9.7,                                    !- Daily Dry-Bulb Temperature Range {deltaC}
  100654,                                 !- Barometric Pressure {Pa}
  1.5,                                    !- Wind Speed {m/s}
  0,                                      !- Wind Direction {deg}
  0,                                      !- Sky Clearness
  No,                                     !- Rain Indicator
  No,                                     !- Snow Indicator
  21,                                     !- Day of Month
  8,                                      !- Month
  SummerDesignDay,                        !- Day Type
  No,                                     !- Daylight Saving Time Indicator
  Wetbulb,                                !- Humidity Condition Type
  ,                                       !- Humidity Condition Day Schedule Name
  18.9,                                   !- Wetbulb or DewPoint at Maximum Dry-Bulb {C}
  ,                                       !- Humidity Ratio at Maximum Dry-Bulb {kgWater/kgDryAir}
  ,                                       !- Enthalpy at Maximum Dry-Bulb {J/kg}
  DefaultMultipliers,                     !- Dry-Bulb Temperature Range Modifier Type
  ,                                       !- Dry-Bulb Temperature Range Modifier Day Schedule Name
  ASHRAETau,                              !- Solar Model Indicator
  ,                                       !- Beam Solar Day Schedule Name
  ,                                       !- Diffuse Solar Day Schedule Name
  0.361,                                  !- ASHRAE Clear Sky Optical Depth for Beam Irradiance {dimensionless}
  2.436;                                  !- ASHRAE Clear Sky Optical Depth for Diffuse Irradiance {dimensionless}

OS:SizingPeriod:DesignDay,
  {e7e057f1-81e9-4e52-aa36-642f5b50ad72}, !- Handle
  CA_LOS-ANGELES-DOWNTOWN- Ann Clg .4% Condns WB=>MDB 1, !- Name
  29.2,                                   !- Maximum Dry-Bulb Temperature {C}
  9.7,                                    !- Daily Dry-Bulb Temperature Range {deltaC}
  100654,                                 !- Barometric Pressure {Pa}
  1.5,                                    !- Wind Speed {m/s}
  0,                                      !- Wind Direction {deg}
  0,                                      !- Sky Clearness
  No,                                     !- Rain Indicator
  No,                                     !- Snow Indicator
  21,                                     !- Day of Month
  8,                                      !- Month
  SummerDesignDay,                        !- Day Type
  No,                                     !- Daylight Saving Time Indicator
  Wetbulb,                                !- Humidity Condition Type
  ,                                       !- Humidity Condition Day Schedule Name
  22,                                     !- Wetbulb or DewPoint at Maximum Dry-Bulb {C}
  ,                                       !- Humidity Ratio at Maximum Dry-Bulb {kgWater/kgDryAir}
  ,                                       !- Enthalpy at Maximum Dry-Bulb {J/kg}
  DefaultMultipliers,                     !- Dry-Bulb Temperature Range Modifier Type
  ,                                       !- Dry-Bulb Temperature Range Modifier Day Schedule Name
  ASHRAETau,                              !- Solar Model Indicator
  ,                                       !- Beam Solar Day Schedule Name
  ,                                       !- Diffuse Solar Day Schedule Name
  0.361,                                  !- ASHRAE Clear Sky Optical Depth for Beam Irradiance {dimensionless}
  2.436;                                  !- ASHRAE Clear Sky Optical Depth for Diffuse Irradiance {dimensionless}

OS:SizingPeriod:DesignDay,
  {48b51c8f-616d-4704-907e-b302f4ad046b}, !- Handle
  CA_LOS-ANGELES-DOWNTOWN- Ann Htg 99.6% Condns DB 1, !- Name
  6.2,                                    !- Maximum Dry-Bulb Temperature {C}
  0,                                      !- Daily Dry-Bulb Temperature Range {deltaC}
  100654,                                 !- Barometric Pressure {Pa}
  0.2,                                    !- Wind Speed {m/s}
  0,                                      !- Wind Direction {deg}
  0,                                      !- Sky Clearness
  No,                                     !- Rain Indicator
  No,                                     !- Snow Indicator
  21,                                     !- Day of Month
  12,                                     !- Month
  WinterDesignDay,                        !- Day Type
  No,                                     !- Daylight Saving Time Indicator
  Wetbulb,                                !- Humidity Condition Type
  ,                                       !- Humidity Condition Day Schedule Name
  6.2,                                    !- Wetbulb or DewPoint at Maximum Dry-Bulb {C}
  ,                                       !- Humidity Ratio at Maximum Dry-Bulb {kgWater/kgDryAir}
  ,                                       !- Enthalpy at Maximum Dry-Bulb {J/kg}
  DefaultMultipliers,                     !- Dry-Bulb Temperature Range Modifier Type
  ,                                       !- Dry-Bulb Temperature Range Modifier Day Schedule Name
  ASHRAEClearSky;                         !- Solar Model Indicator

OS:ClimateZones,
  {5973fda7-37ab-49d5-b5d3-855a535ac645}, !- Handle
  CEC,                                    !- Climate Zone Institution Name 1
  California Climate Zone Descriptions,   !- Climate Zone Document Name 1
  1995,                                   !- Climate Zone Document Year 1
  8,                                      !- Climate Zone Value 1
  ASHRAE,                                 !- Climate Zone Institution Name 2
  ANSI/ASHRAE Standard 169,               !- Climate Zone Document Name 2
  2006,                                   !- Climate Zone Document Year 2
  ;                                       !- Climate Zone Value 2

OS:SpaceType,
  {089fdc50-2d9a-42c8-8590-95ed19c4da1d}, !- Handle
  SCn WarehouseCond - DEER Pre-1975,      !- Name
  ,                                       !- Default Construction Set Name
  {56bb62f4-b00b-429b-888e-2a5430dbf758}, !- Default Schedule Set Name
  ,                                       !- Group Rendering Name
  {4fd979f6-885a-4d26-a93b-94df017f3404}, !- Design Specification Outdoor Air Object Name
  ,                                       !- Standards Template
  SCn,                                    !- Standards Building Type
  WarehouseCond;                          !- Standards Space Type

OS:Building,
  {2c6942f7-3267-4c39-afea-9957cf417c38}, !- Handle
  DEER Pre-1975|SCn,                      !- Name
  ,                                       !- Building Sector Type
  90,                                     !- North Axis {deg}
  ,                                       !- Nominal Floor to Floor Height {m}
  ,                                       !- Space Type Name
  {370b6efc-2505-4745-b45a-1cba7da6ded9}, !- Default Construction Set Name
  {a0c12ef1-aab2-4be2-a195-4ae683b31996}, !- Default Schedule Set Name
  ,                                       !- Standards Number of Stories
  ,                                       !- Standards Number of Above Ground Stories
  ,                                       !- Standards Template
  SCn;                                    !- Standards Building Type

OS:BuildingStory,
  {eb945480-c676-4651-98ac-b3ba28076973}, !- Handle
  Story Ground,                           !- Name
  0,                                      !- Nominal Z Coordinate {m}
  9.144,                                  !- Nominal Floor to Floor Height {m}
  ,                                       !- Default Construction Set Name
  ,                                       !- Default Schedule Set Name
  ;                                       !- Group Rendering Name

OS:Space,
  {b2531084-e378-40bc-b4a6-58190b3fe895}, !- Handle
  SCn WarehouseCond A end_a - Story Ground, !- Name
  {089fdc50-2d9a-42c8-8590-95ed19c4da1d}, !- Space Type Name
  ,                                       !- Default Construction Set Name
  ,                                       !- Default Schedule Set Name
  -0,                                     !- Direction of Relative North {deg}
  -8.34729177637873,                      !- X Origin {m}
  -8.34729177637873,                      !- Y Origin {m}
  0,                                      !- Z Origin {m}
  {eb945480-c676-4651-98ac-b3ba28076973}, !- Building Story Name
  {c05c495b-d72d-4b0e-9c07-568f00506c2c}; !- Thermal Zone Name

OS:Surface,
  {b96ec76d-e2b0-4cc5-8cd7-b348d98afcbb}, !- Handle
  Surface 1,                              !- Name
  Floor,                                  !- Surface Type
  ,                                       !- Construction Name
  {b2531084-e378-40bc-b4a6-58190b3fe895}, !- Space Name
  Ground,                                 !- Outside Boundary Condition
  ,                                       !- Outside Boundary Condition Object
  NoSun,                                  !- Sun Exposure
  NoWind,                                 !- Wind Exposure
  ,                                       !- View Factor to Ground
  ,                                       !- Number of Vertices
  1.77635683940025e-15, 1.77635683940025e-15, 0, !- X,Y,Z Vertex 1 {m}
  1.77635683940025e-15, 4.572, 0,         !- X,Y,Z Vertex 2 {m}
  4.572, 4.572, 0,                        !- X,Y,Z Vertex 3 {m}
  4.572, 1.77635683940025e-15, 0;         !- X,Y,Z Vertex 4 {m}

OS:Surface,
  {58aa048e-1124-4128-a25e-3c8c93f1a1b8}, !- Handle
  Surface 2,                              !- Name
  Wall,                                   !- Surface Type
  ,                                       !- Construction Name
  {b2531084-e378-40bc-b4a6-58190b3fe895}, !- Space Name
  Outdoors,                               !- Outside Boundary Condition
  ,                                       !- Outside Boundary Condition Object
  SunExposed,                             !- Sun Exposure
  WindExposed,                            !- Wind Exposure
  ,                                       !- View Factor to Ground
  ,                                       !- Number of Vertices
  1.77635683940025e-15, 4.572, 9.144,     !- X,Y,Z Vertex 1 {m}
  1.77635683940025e-15, 4.572, 0,         !- X,Y,Z Vertex 2 {m}
  1.77635683940025e-15, 1.77635683940025e-15, 0, !- X,Y,Z Vertex 3 {m}
  1.77635683940025e-15, 1.77635683940025e-15, 9.144; !- X,Y,Z Vertex 4 {m}

OS:Surface,
  {0dbaca08-3842-46f3-a3f7-a4db10df81a4}, !- Handle
  Surface 3,                              !- Name
  Wall,                                   !- Surface Type
  ,                                       !- Construction Name
  {b2531084-e378-40bc-b4a6-58190b3fe895}, !- Space Name
  Surface,                                !- Outside Boundary Condition
  {97c7e752-0f3a-4857-b220-e4db09d53ce9}, !- Outside Boundary Condition Object
  NoSun,                                  !- Sun Exposure
  NoWind,                                 !- Wind Exposure
  ,                                       !- View Factor to Ground
  ,                                       !- Number of Vertices
  4.572, 4.572, 9.144,                    !- X,Y,Z Vertex 1 {m}
  4.572, 4.572, 0,                        !- X,Y,Z Vertex 2 {m}
  1.77635683940025e-15, 4.572, 0,         !- X,Y,Z Vertex 3 {m}
  1.77635683940025e-15, 4.572, 9.144;     !- X,Y,Z Vertex 4 {m}

OS:Surface,
  {c43a4078-b1aa-478e-9a5e-b030341e8c7f}, !- Handle
  Surface 4,                              !- Name
  Wall,                                   !- Surface Type
  ,                                       !- Construction Name
  {b2531084-e378-40bc-b4a6-58190b3fe895}, !- Space Name
  Surface,                                !- Outside Boundary Condition
  {533c936d-d987-469c-b68a-6191dc6aad48}, !- Outside Boundary Condition Object
  NoSun,                                  !- Sun Exposure
  NoWind,                                 !- Wind Exposure
  ,                                       !- View Factor to Ground
  ,                                       !- Number of Vertices
  4.572, 1.77635683940025e-15, 9.144,     !- X,Y,Z Vertex 1 {m}
  4.572, 1.77635683940025e-15, 0,         !- X,Y,Z Vertex 2 {m}
  4.572, 4.572, 0,                        !- X,Y,Z Vertex 3 {m}
  4.572, 4.572, 9.144;                    !- X,Y,Z Vertex 4 {m}

OS:Surface,
  {f01528a4-c397-494d-913a-6d6b104016de}, !- Handle
  Surface 5,                              !- Name
  Wall,                                   !- Surface Type
  ,                                       !- Construction Name
  {b2531084-e378-40bc-b4a6-58190b3fe895}, !- Space Name
  Outdoors,                               !- Outside Boundary Condition
  ,                                       !- Outside Boundary Condition Object
  SunExposed,                             !- Sun Exposure
  WindExposed,                            !- Wind Exposure
  ,                                       !- View Factor to Ground
  ,                                       !- Number of Vertices
  1.77635683940025e-15, 1.77635683940025e-15, 9.144, !- X,Y,Z Vertex 1 {m}
  1.77635683940025e-15, 1.77635683940025e-15, 0, !- X,Y,Z Vertex 2 {m}
  4.572, 1.77635683940025e-15, 0,         !- X,Y,Z Vertex 3 {m}
  4.572, 1.77635683940025e-15, 9.144;     !- X,Y,Z Vertex 4 {m}

OS:Surface,
  {d3a732c4-ba82-473c-9071-8c1ad33732f1}, !- Handle
  Surface 6,                              !- Name
  RoofCeiling,                            !- Surface Type
  ,                                       !- Construction Name
  {b2531084-e378-40bc-b4a6-58190b3fe895}, !- Space Name
  Outdoors,                               !- Outside Boundary Condition
  ,                                       !- Outside Boundary Condition Object
  SunExposed,                             !- Sun Exposure
  WindExposed,                            !- Wind Exposure
  ,                                       !- View Factor to Ground
  ,                                       !- Number of Vertices
  4.572, 1.77635683940025e-15, 9.144,     !- X,Y,Z Vertex 1 {m}
  4.572, 4.572, 9.144,                    !- X,Y,Z Vertex 2 {m}
  1.77635683940025e-15, 4.572, 9.144,     !- X,Y,Z Vertex 3 {m}
  1.77635683940025e-15, 1.77635683940025e-15, 9.144; !- X,Y,Z Vertex 4 {m}

OS:ThermalZone,
  {c05c495b-d72d-4b0e-9c07-568f00506c2c}, !- Handle
  Zone SCn WarehouseCond A end_a - Story Ground, !- Name
  1,                                      !- Multiplier
  ,                                       !- Ceiling Height {m}
  ,                                       !- Volume {m3}
  ,                                       !- Floor Area {m2}
  ,                                       !- Zone Inside Convection Algorithm
  ,                                       !- Zone Outside Convection Algorithm
  ,                                       !- Zone Conditioning Equipment List Name
  {df9df1c3-a505-4eea-9772-1a12c5e87376}, !- Zone Air Inlet Port List
  {8a59ef96-3e40-4616-a649-e39e3bae69b5}, !- Zone Air Exhaust Port List
  {adcc7092-eda6-4d02-8037-927cad8a3ec9}, !- Zone Air Node Name
  {1bddec74-916b-4fae-a1f2-97e466280649}, !- Zone Return Air Port List
  ,                                       !- Primary Daylighting Control Name
  ,                                       !- Fraction of Zone Controlled by Primary Daylighting Control
  ,                                       !- Secondary Daylighting Control Name
  ,                                       !- Fraction of Zone Controlled by Secondary Daylighting Control
  ,                                       !- Illuminance Map Name
  ,                                       !- Group Rendering Name
  {b8cb9665-b2b8-4253-8bb6-8135d6a30394}, !- Thermostat Name
  No;                                     !- Use Ideal Air Loads

OS:Node,
  {7216494c-40a6-4d9a-a43e-92566be30861}, !- Handle
  Zone SCn WarehouseCond A end_a - Story Ground Zone Air Node, !- Name
  {adcc7092-eda6-4d02-8037-927cad8a3ec9}, !- Inlet Port
  ;                                       !- Outlet Port

OS:Connection,
  {adcc7092-eda6-4d02-8037-927cad8a3ec9}, !- Handle
  {c05c495b-d72d-4b0e-9c07-568f00506c2c}, !- Source Object
  11,                                     !- Outlet Port
  {7216494c-40a6-4d9a-a43e-92566be30861}, !- Target Object
  2;                                      !- Inlet Port

OS:PortList,
  {df9df1c3-a505-4eea-9772-1a12c5e87376}, !- Handle
  {c05c495b-d72d-4b0e-9c07-568f00506c2c}, !- HVAC Component
  {851d66bb-3ce0-4db0-9383-65b0d6eab510}; !- Port 1

OS:PortList,
  {8a59ef96-3e40-4616-a649-e39e3bae69b5}, !- Handle
  {c05c495b-d72d-4b0e-9c07-568f00506c2c}; !- HVAC Component

OS:PortList,
  {1bddec74-916b-4fae-a1f2-97e466280649}, !- Handle
  {c05c495b-d72d-4b0e-9c07-568f00506c2c}, !- HVAC Component
  {2a3fb928-a604-4280-a75b-72cee2e3f769}; !- Port 1

OS:Sizing:Zone,
  {dc49b747-3a24-4a3d-bd04-968d4e94e288}, !- Handle
  {c05c495b-d72d-4b0e-9c07-568f00506c2c}, !- Zone or ZoneList Name
  SupplyAirTemperature,                   !- Zone Cooling Design Supply Air Temperature Input Method
  14,                                     !- Zone Cooling Design Supply Air Temperature {C}
  11.11,                                  !- Zone Cooling Design Supply Air Temperature Difference {deltaC}
  SupplyAirTemperature,                   !- Zone Heating Design Supply Air Temperature Input Method
  40,                                     !- Zone Heating Design Supply Air Temperature {C}
  11.11,                                  !- Zone Heating Design Supply Air Temperature Difference {deltaC}
  0.0085,                                 !- Zone Cooling Design Supply Air Humidity Ratio {kg-H2O/kg-air}
  0.008,                                  !- Zone Heating Design Supply Air Humidity Ratio {kg-H2O/kg-air}
  ,                                       !- Zone Heating Sizing Factor
  ,                                       !- Zone Cooling Sizing Factor
  DesignDay,                              !- Cooling Design Air Flow Method
  ,                                       !- Cooling Design Air Flow Rate {m3/s}
  ,                                       !- Cooling Minimum Air Flow per Zone Floor Area {m3/s-m2}
  ,                                       !- Cooling Minimum Air Flow {m3/s}
  ,                                       !- Cooling Minimum Air Flow Fraction
  DesignDay,                              !- Heating Design Air Flow Method
  ,                                       !- Heating Design Air Flow Rate {m3/s}
  ,                                       !- Heating Maximum Air Flow per Zone Floor Area {m3/s-m2}
  ,                                       !- Heating Maximum Air Flow {m3/s}
  ,                                       !- Heating Maximum Air Flow Fraction
  No,                                     !- Account for Dedicated Outdoor Air System
  NeutralSupplyAir,                       !- Dedicated Outdoor Air System Control Strategy
  autosize,                               !- Dedicated Outdoor Air Low Setpoint Temperature for Design {C}
  autosize,                               !- Dedicated Outdoor Air High Setpoint Temperature for Design {C}
  Sensible Load Only No Latent Load,      !- Zone Load Sizing Method
  HumidityRatioDifference,                !- Zone Latent Cooling Design Supply Air Humidity Ratio Input Method
  ,                                       !- Zone Dehumidification Design Supply Air Humidity Ratio {kgWater/kgDryAir}
  0.005,                                  !- Zone Cooling Design Supply Air Humidity Ratio Difference {kgWater/kgDryAir}
  HumidityRatioDifference,                !- Zone Latent Heating Design Supply Air Humidity Ratio Input Method
  ,                                       !- Zone Humidification Design Supply Air Humidity Ratio {kgWater/kgDryAir}
  0.005;                                  !- Zone Humidification Design Supply Air Humidity Ratio Difference {kgWater/kgDryAir}

OS:ZoneHVAC:EquipmentList,
  {873ee424-4083-43c1-b46c-a2c26d3e3340}, !- Handle
  Zone SCn WarehouseCond A end_a - Story Ground Zone HVAC Equipment List, !- Name
  {c05c495b-d72d-4b0e-9c07-568f00506c2c}, !- Thermal Zone
  ,                                       !- Load Distribution Scheme
  {f3ed7d61-3e39-48bf-b8ae-d41a747323b0}, !- Zone Equipment 1
  1,                                      !- Zone Equipment Cooling Sequence 1
  1,                                      !- Zone Equipment Heating or No-Load Sequence 1
  ,                                       !- Zone Equipment Sequential Cooling Fraction Schedule Name 1
  ,                                       !- Zone Equipment Sequential Heating Fraction Schedule Name 1
  {0d80fdd1-299c-4960-a5ee-aece17bd79c3}, !- Zone Equipment 2
  2,                                      !- Zone Equipment Cooling Sequence 2
  2,                                      !- Zone Equipment Heating or No-Load Sequence 2
  ,                                       !- Zone Equipment Sequential Cooling Fraction Schedule Name 2
  ;                                       !- Zone Equipment Sequential Heating Fraction Schedule Name 2

OS:Space,
  {6774883e-96d2-4022-80fc-cb92eb09d250}, !- Handle
  SCn WarehouseCond B end_a - Story Ground, !- Name
  {089fdc50-2d9a-42c8-8590-95ed19c4da1d}, !- Space Type Name
  ,                                       !- Default Construction Set Name
  ,                                       !- Default Schedule Set Name
  -0,                                     !- Direction of Relative North {deg}
  -8.34729177637873,                      !- X Origin {m}
  -3.77529177637873,                      !- Y Origin {m}
  0,                                      !- Z Origin {m}
  {eb945480-c676-4651-98ac-b3ba28076973}, !- Building Story Name
  {c7e2fac7-5a71-47d1-9d7a-19b154289d5a}; !- Thermal Zone Name

OS:Surface,
  {75caaabc-51a3-4a40-a084-bd18f4166042}, !- Handle
  Surface 7,                              !- Name
  Floor,                                  !- Surface Type
  ,                                       !- Construction Name
  {6774883e-96d2-4022-80fc-cb92eb09d250}, !- Space Name
  Ground,                                 !- Outside Boundary Condition
  ,                                       !- Outside Boundary Condition Object
  NoSun,                                  !- Sun Exposure
  NoWind,                                 !- Wind Exposure
  ,                                       !- View Factor to Ground
  ,                                       !- Number of Vertices
  1.77635683940025e-15, 2.22044604925031e-15, 0, !- X,Y,Z Vertex 1 {m}
  1.77635683940025e-15, 7.55058355275746, 0, !- X,Y,Z Vertex 2 {m}
  4.572, 7.55058355275746, 0,             !- X,Y,Z Vertex 3 {m}
  4.572, 2.22044604925031e-15, 0;         !- X,Y,Z Vertex 4 {m}

OS:Surface,
  {20f8ce19-ab0f-4a80-b34a-c0c5a1120347}, !- Handle
  Surface 8,                              !- Name
  Wall,                                   !- Surface Type
  ,                                       !- Construction Name
  {6774883e-96d2-4022-80fc-cb92eb09d250}, !- Space Name
  Outdoors,                               !- Outside Boundary Condition
  ,                                       !- Outside Boundary Condition Object
  SunExposed,                             !- Sun Exposure
  WindExposed,                            !- Wind Exposure
  ,                                       !- View Factor to Ground
  ,                                       !- Number of Vertices
  1.77635683940025e-15, 7.55058355275746, 9.144, !- X,Y,Z Vertex 1 {m}
  1.77635683940025e-15, 7.55058355275746, 0, !- X,Y,Z Vertex 2 {m}
  1.77635683940025e-15, 2.22044604925031e-15, 0, !- X,Y,Z Vertex 3 {m}
  1.77635683940025e-15, 2.22044604925031e-15, 9.144; !- X,Y,Z Vertex 4 {m}

OS:Surface,
  {337fe0d4-6100-4dcd-abbd-c7752e8563db}, !- Handle
  Surface 9,                              !- Name
  Wall,                                   !- Surface Type
  ,                                       !- Construction Name
  {6774883e-96d2-4022-80fc-cb92eb09d250}, !- Space Name
  Surface,                                !- Outside Boundary Condition
  {fdad586e-a250-4a43-96bb-f497450b7011}, !- Outside Boundary Condition Object
  NoSun,                                  !- Sun Exposure
  NoWind,                                 !- Wind Exposure
  ,                                       !- View Factor to Ground
  ,                                       !- Number of Vertices
  4.572, 7.55058355275746, 9.144,         !- X,Y,Z Vertex 1 {m}
  4.572, 7.55058355275746, 0,             !- X,Y,Z Vertex 2 {m}
  1.77635683940025e-15, 7.55058355275746, 0, !- X,Y,Z Vertex 3 {m}
  1.77635683940025e-15, 7.55058355275746, 9.144; !- X,Y,Z Vertex 4 {m}

OS:Surface,
  {15112bd7-1a83-44ba-8366-602b739a3af2}, !- Handle
  Surface 10,                             !- Name
  Wall,                                   !- Surface Type
  ,                                       !- Construction Name
  {6774883e-96d2-4022-80fc-cb92eb09d250}, !- Space Name
  Surface,                                !- Outside Boundary Condition
  {521a479a-37c3-48c6-8bd5-6010c3b19db0}, !- Outside Boundary Condition Object
  NoSun,                                  !- Sun Exposure
  NoWind,                                 !- Wind Exposure
  ,                                       !- View Factor to Ground
  ,                                       !- Number of Vertices
  4.572, 2.22044604925031e-15, 9.144,     !- X,Y,Z Vertex 1 {m}
  4.572, 2.22044604925031e-15, 0,         !- X,Y,Z Vertex 2 {m}
  4.572, 7.55058355275746, 0,             !- X,Y,Z Vertex 3 {m}
  4.572, 7.55058355275746, 9.144;         !- X,Y,Z Vertex 4 {m}

OS:Surface,
  {97c7e752-0f3a-4857-b220-e4db09d53ce9}, !- Handle
  Surface 11,                             !- Name
  Wall,                                   !- Surface Type
  ,                                       !- Construction Name
  {6774883e-96d2-4022-80fc-cb92eb09d250}, !- Space Name
  Surface,                                !- Outside Boundary Condition
  {0dbaca08-3842-46f3-a3f7-a4db10df81a4}, !- Outside Boundary Condition Object
  NoSun,                                  !- Sun Exposure
  NoWind,                                 !- Wind Exposure
  ,                                       !- View Factor to Ground
  ,                                       !- Number of Vertices
  1.77635683940025e-15, 2.22044604925031e-15, 9.144, !- X,Y,Z Vertex 1 {m}
  1.77635683940025e-15, 2.22044604925031e-15, 0, !- X,Y,Z Vertex 2 {m}
  4.572, 2.22044604925031e-15, 0,         !- X,Y,Z Vertex 3 {m}
  4.572, 2.22044604925031e-15, 9.144;     !- X,Y,Z Vertex 4 {m}

OS:Surface,
  {6f6843c3-7b91-476c-b920-7f111acfa79f}, !- Handle
  Surface 12,                             !- Name
  RoofCeiling,                            !- Surface Type
  ,                                       !- Construction Name
  {6774883e-96d2-4022-80fc-cb92eb09d250}, !- Space Name
  Outdoors,                               !- Outside Boundary Condition
  ,                                       !- Outside Boundary Condition Object
  SunExposed,                             !- Sun Exposure
  WindExposed,                            !- Wind Exposure
  ,                                       !- View Factor to Ground
  ,                                       !- Number of Vertices