
OS:Version,
  {e7307ae7-0a5c-4c45-8afa-c5301deb754a}, !- Handle
  2.9.1;                                  !- Version Identifier

OS:Facility,
  {b9040afa-14ca-4a75-b2e9-7303730231ec}; !- Handle

OS:Site,
  {b05f0b91-651f-4ce1-9b2e-9833c992d174}, !- Handle
  Greeley Weld Co_CO_USA,                 !- Name
  40.44,                                  !- Latitude {deg}
  -104.62,                                !- Longitude {deg}
  -7,                                     !- Time Zone {hr}
  1417,                                   !- Elevation {m}
  City;                                   !- Terrain

OS:SimulationControl,
  {6102c9ad-dd1c-495b-aa9c-a2cb0faff211}, !- Handle
  ,                                       !- Do Zone Sizing Calculation
  ,                                       !- Do System Sizing Calculation
  ,                                       !- Do Plant Sizing Calculation
  Yes,                                    !- Run Simulation for Sizing Periods
  No;                                     !- Run Simulation for Weather File Run Periods

OS:Sizing:Parameters,
  {f6ecc5fd-e3bb-45bd-a418-8581aa12cf7d}, !- Handle
  1.25,                                   !- Heating Sizing Factor
  1.15;                                   !- Cooling Sizing Factor

OS:Timestep,
  {8939c798-2419-4548-b256-37e1ce69d4e1}, !- Handle
  6;                                      !- Number of Timesteps per Hour

OS:ShadowCalculation,
  {079ee56b-6a8c-496c-a1f4-35c2ee894c36}, !- Handle
  20,                                     !- Calculation Frequency
  15000;                                  !- Maximum Figures in Shadow Overlap Calculations

OS:HeatBalanceAlgorithm,
  {667714ca-9ce4-46f7-8973-7392a25bb4e4}, !- Handle
  ConductionTransferFunction,             !- Algorithm
  200;                                    !- Surface Temperature Upper Limit {C}

OS:RunPeriod,
  {5434e150-e30b-4fed-9268-87697a0f811b}, !- Handle
  Run Period 1,                           !- Name
  1,                                      !- Begin Month
  1,                                      !- Begin Day of Month
  12,                                     !- End Month
  31,                                     !- End Day of Month
  ,                                       !- Use Weather File Holidays and Special Days
  ,                                       !- Use Weather File Daylight Saving Period
  ,                                       !- Apply Weekend Holiday Rule
  ,                                       !- Use Weather File Rain Indicators
  ,                                       !- Use Weather File Snow Indicators
  ;                                       !- Number of Times Runperiod to be Repeated

OS:LifeCycleCost:Parameters,
  {d671db34-207b-4aff-9244-8e9b82a77abe}, !- Handle
  ,                                       !- Analysis Type
  ,                                       !- Discounting Convention
  ,                                       !- Inflation Approach
  ,                                       !- Real Discount Rate
  ,                                       !- Nominal Discount Rate
  ,                                       !- Inflation
  ,                                       !- Base Date Month
  ,                                       !- Base Date Year
  ,                                       !- Service Date Month
  ,                                       !- Service Date Year
  ;                                       !- Length of Study Period in Years

OS:WeatherFile,
  {1a057142-1306-4da3-b391-3e375996b3f0}, !- Handle
  Greeley Weld Co,                        !- City
  CO,                                     !- State Province Region
  USA,                                    !- Country
  customized weather file,                !- Data Source
  724768,                                 !- WMO Number
  40.44,                                  !- Latitude {deg}
  -104.62,                                !- Longitude {deg}
  -7,                                     !- Time Zone {hr}
  1417,                                   !- Elevation {m}
  file:////weather/G0800690.epw,          !- Url
  226BE93E;                               !- Checksum

OS:Site:WaterMainsTemperature,
  {165e2261-bb2e-4771-8f67-b4e3635361ff}, !- Handle
  Correlation,                            !- Calculation Method
  ,                                       !- Temperature Schedule Name
  8.30083333333333,                       !- Annual Average Outdoor Air Temperature {C}
  28.37;                                  !- Maximum Difference In Monthly Average Outdoor Air Temperatures {deltaC}

OS:SizingPeriod:DesignDay,
  {911867cc-3a97-4454-aee0-a259f872dc07}, !- Handle
  Greeley Weld Co Ann Clg .4% Condns DB=>MWB 1, !- Name
  35.2,                                   !- Maximum Dry-Bulb Temperature {C}
  17.5,                                   !- Daily Dry-Bulb Temperature Range {deltaC}
  16.8,                                   !- Humidity Indicating Conditions at Maximum Dry-Bulb
  85421,                                  !- Barometric Pressure {Pa}
  3.5,                                    !- Wind Speed {m/s}
  140,                                    !- Wind Direction {deg}
  0,                                      !- Sky Clearness
  0,                                      !- Rain Indicator
  0,                                      !- Snow Indicator
  21,                                     !- Day of Month
  7,                                      !- Month
  SummerDesignDay,                        !- Day Type
  0,                                      !- Daylight Saving Time Indicator
  Wetbulb,                                !- Humidity Indicating Type
  ,                                       !- Humidity Indicating Day Schedule Name
  DefaultMultipliers,                     !- Dry-Bulb Temperature Range Modifier Type
  ,                                       !- Dry-Bulb Temperature Range Modifier Schedule Name
  ASHRAETau,                              !- Solar Model Indicator
  ,                                       !- Beam Solar Day Schedule Name
  ,                                       !- Diffuse Solar Day Schedule Name
  0.324,                                  !- ASHRAE Taub {dimensionless}
  2.398;                                  !- ASHRAE Taud {dimensionless}

OS:SizingPeriod:DesignDay,
  {f620dce9-facf-4a51-a26d-423c9a0bb59c}, !- Handle
  Greeley Weld Co Ann Clg .4% Condns WB=>MDB 1, !- Name
  29.1,                                   !- Maximum Dry-Bulb Temperature {C}
  17.5,                                   !- Daily Dry-Bulb Temperature Range {deltaC}
  19.5,                                   !- Humidity Indicating Conditions at Maximum Dry-Bulb
  85421,                                  !- Barometric Pressure {Pa}
  3.5,                                    !- Wind Speed {m/s}
  140,                                    !- Wind Direction {deg}
  0,                                      !- Sky Clearness
  0,                                      !- Rain Indicator
  0,                                      !- Snow Indicator
  21,                                     !- Day of Month
  7,                                      !- Month
  SummerDesignDay,                        !- Day Type
  0,                                      !- Daylight Saving Time Indicator
  Wetbulb,                                !- Humidity Indicating Type
  ,                                       !- Humidity Indicating Day Schedule Name
  DefaultMultipliers,                     !- Dry-Bulb Temperature Range Modifier Type
  ,                                       !- Dry-Bulb Temperature Range Modifier Schedule Name
  ASHRAETau,                              !- Solar Model Indicator
  ,                                       !- Beam Solar Day Schedule Name
  ,                                       !- Diffuse Solar Day Schedule Name
  0.324,                                  !- ASHRAE Taub {dimensionless}
  2.398;                                  !- ASHRAE Taud {dimensionless}

OS:SizingPeriod:DesignDay,
  {2ae3c72e-ec36-4655-8f21-85a4c70ef929}, !- Handle
  Greeley Weld Co Ann Clg 1% Condns DB=>MWB 1, !- Name
  33,                                     !- Maximum Dry-Bulb Temperature {C}
  17.5,                                   !- Daily Dry-Bulb Temperature Range {deltaC}
  16.7,                                   !- Humidity Indicating Conditions at Maximum Dry-Bulb
  85421,                                  !- Barometric Pressure {Pa}
  3.5,                                    !- Wind Speed {m/s}
  140,                                    !- Wind Direction {deg}
  0,                                      !- Sky Clearness
  0,                                      !- Rain Indicator
  0,                                      !- Snow Indicator
  21,                                     !- Day of Month
  7,                                      !- Month
  SummerDesignDay,                        !- Day Type
  0,                                      !- Daylight Saving Time Indicator
  Wetbulb,                                !- Humidity Indicating Type
  ,                                       !- Humidity Indicating Day Schedule Name
  DefaultMultipliers,                     !- Dry-Bulb Temperature Range Modifier Type
  ,                                       !- Dry-Bulb Temperature Range Modifier Schedule Name
  ASHRAETau,                              !- Solar Model Indicator
  ,                                       !- Beam Solar Day Schedule Name
  ,                                       !- Diffuse Solar Day Schedule Name
  0.324,                                  !- ASHRAE Taub {dimensionless}
  2.398;                                  !- ASHRAE Taud {dimensionless}

OS:SizingPeriod:DesignDay,
  {d5e059ee-630b-41b4-984d-daed8f0aa6ba}, !- Handle
  Greeley Weld Co Ann Clg 2% Condns DP=>MDB 1, !- Name
  22,                                     !- Maximum Dry-Bulb Temperature {C}
  17.5,                                   !- Daily Dry-Bulb Temperature Range {deltaC}
  14.4,                                   !- Humidity Indicating Conditions at Maximum Dry-Bulb
  85421,                                  !- Barometric Pressure {Pa}
  3.5,                                    !- Wind Speed {m/s}
  140,                                    !- Wind Direction {deg}
  0,                                      !- Sky Clearness
  0,                                      !- Rain Indicator
  0,                                      !- Snow Indicator
  21,                                     !- Day of Month
  7,                                      !- Month
  SummerDesignDay,                        !- Day Type
  0,                                      !- Daylight Saving Time Indicator
  Dewpoint,                               !- Humidity Indicating Type
  ,                                       !- Humidity Indicating Day Schedule Name
  DefaultMultipliers,                     !- Dry-Bulb Temperature Range Modifier Type
  ,                                       !- Dry-Bulb Temperature Range Modifier Schedule Name
  ASHRAETau,                              !- Solar Model Indicator
  ,                                       !- Beam Solar Day Schedule Name
  ,                                       !- Diffuse Solar Day Schedule Name
  0.324,                                  !- ASHRAE Taub {dimensionless}
  2.398;                                  !- ASHRAE Taud {dimensionless}

OS:SizingPeriod:DesignDay,
  {356977d5-204e-48a0-bde9-98b994aaaf90}, !- Handle
  Greeley Weld Co Ann Htg 99% Condns DB 1, !- Name
  -17.6,                                  !- Maximum Dry-Bulb Temperature {C}
  0,                                      !- Daily Dry-Bulb Temperature Range {deltaC}
  -17.6,                                  !- Humidity Indicating Conditions at Maximum Dry-Bulb
  85421,                                  !- Barometric Pressure {Pa}
  1.1,                                    !- Wind Speed {m/s}
  330,                                    !- Wind Direction {deg}
  0,                                      !- Sky Clearness
  0,                                      !- Rain Indicator
  0,                                      !- Snow Indicator
  21,                                     !- Day of Month
  1,                                      !- Month
  WinterDesignDay,                        !- Day Type
  0,                                      !- Daylight Saving Time Indicator
  Wetbulb,                                !- Humidity Indicating Type
  ,                                       !- Humidity Indicating Day Schedule Name
  DefaultMultipliers,                     !- Dry-Bulb Temperature Range Modifier Type
  ,                                       !- Dry-Bulb Temperature Range Modifier Schedule Name
  ASHRAEClearSky;                         !- Solar Model Indicator

OS:SizingPeriod:DesignDay,
  {e4017cd7-dc4b-4a16-a773-37dbc03e44f0}, !- Handle
  Greeley Weld Co Ann Htg 99.6% Condns DB 1, !- Name
  -21.3,                                  !- Maximum Dry-Bulb Temperature {C}
  0,                                      !- Daily Dry-Bulb Temperature Range {deltaC}
  -21.3,                                  !- Humidity Indicating Conditions at Maximum Dry-Bulb
  85421,                                  !- Barometric Pressure {Pa}
  1.1,                                    !- Wind Speed {m/s}
  330,                                    !- Wind Direction {deg}
  0,                                      !- Sky Clearness
  0,                                      !- Rain Indicator
  0,                                      !- Snow Indicator
  21,                                     !- Day of Month
  1,                                      !- Month
  WinterDesignDay,                        !- Day Type
  0,                                      !- Daylight Saving Time Indicator
  Wetbulb,                                !- Humidity Indicating Type
  ,                                       !- Humidity Indicating Day Schedule Name
  DefaultMultipliers,                     !- Dry-Bulb Temperature Range Modifier Type
  ,                                       !- Dry-Bulb Temperature Range Modifier Schedule Name
  ASHRAEClearSky;                         !- Solar Model Indicator

OS:SizingPeriod:DesignDay,
  {2a802daf-48b4-4583-b67e-0915ca79c205}, !- Handle
  Greeley Weld Co Ann Htg Wind 99% Condns WS=>MCDB 1, !- Name
  3.1,                                    !- Maximum Dry-Bulb Temperature {C}
  0,                                      !- Daily Dry-Bulb Temperature Range {deltaC}
  3.1,                                    !- Humidity Indicating Conditions at Maximum Dry-Bulb
  85421,                                  !- Barometric Pressure {Pa}
  11.9,                                   !- Wind Speed {m/s}
  330,                                    !- Wind Direction {deg}
  0,                                      !- Sky Clearness
  0,                                      !- Rain Indicator
  0,                                      !- Snow Indicator
  21,                                     !- Day of Month
  1,                                      !- Month
  WinterDesignDay,                        !- Day Type
  0,                                      !- Daylight Saving Time Indicator
  Wetbulb,                                !- Humidity Indicating Type
  ,                                       !- Humidity Indicating Day Schedule Name
  DefaultMultipliers,                     !- Dry-Bulb Temperature Range Modifier Type
  ,                                       !- Dry-Bulb Temperature Range Modifier Schedule Name
  ASHRAEClearSky;                         !- Solar Model Indicator

OS:SizingPeriod:DesignDay,
  {e013dca6-0539-453f-b7d9-38f6ed509708}, !- Handle
  Greeley Weld Co April .4% Condns DB=>MCWB 1, !- Name
  27.3,                                   !- Maximum Dry-Bulb Temperature {C}
  15.8,                                   !- Daily Dry-Bulb Temperature Range {deltaC}
  11.1,                                   !- Humidity Indicating Conditions at Maximum Dry-Bulb
  85421,                                  !- Barometric Pressure {Pa}
  3.5,                                    !- Wind Speed {m/s}
  140,                                    !- Wind Direction {deg}
  0,                                      !- Sky Clearness
  0,                                      !- Rain Indicator
  0,                                      !- Snow Indicator
  21,                                     !- Day of Month
  4,                                      !- Month
  SummerDesignDay,                        !- Day Type
  0,                                      !- Daylight Saving Time Indicator
  Wetbulb,                                !- Humidity Indicating Type
  ,                                       !- Humidity Indicating Day Schedule Name
  DefaultMultipliers,                     !- Dry-Bulb Temperature Range Modifier Type
  ,                                       !- Dry-Bulb Temperature Range Modifier Schedule Name
  ASHRAETau,                              !- Solar Model Indicator
  ,                                       !- Beam Solar Day Schedule Name
  ,                                       !- Diffuse Solar Day Schedule Name
  0.274,                                  !- ASHRAE Taub {dimensionless}
  2.53;                                   !- ASHRAE Taud {dimensionless}

OS:SizingPeriod:DesignDay,
  {980fd6b2-cc08-432f-9040-c5f2a34d1366}, !- Handle
  Greeley Weld Co April .4% Condns WB=>MCDB 1, !- Name
  22.7,                                   !- Maximum Dry-Bulb Temperature {C}
  15.8,                                   !- Daily Dry-Bulb Temperature Range {deltaC}
  12.7,                                   !- Humidity Indicating Conditions at Maximum Dry-Bulb
  85421,                                  !- Barometric Pressure {Pa}
  3.5,                                    !- Wind Speed {m/s}
  140,                                    !- Wind Direction {deg}
  0,                                      !- Sky Clearness
  0,                                      !- Rain Indicator
  0,                                      !- Snow Indicator
  21,                                     !- Day of Month
  4,                                      !- Month
  SummerDesignDay,                        !- Day Type
  0,                                      !- Daylight Saving Time Indicator
  Wetbulb,                                !- Humidity Indicating Type
  ,                                       !- Humidity Indicating Day Schedule Name
  DefaultMultipliers,                     !- Dry-Bulb Temperature Range Modifier Type
  ,                                       !- Dry-Bulb Temperature Range Modifier Schedule Name
  ASHRAETau,                              !- Solar Model Indicator
  ,                                       !- Beam Solar Day Schedule Name
  ,                                       !- Diffuse Solar Day Schedule Name
  0.274,                                  !- ASHRAE Taub {dimensionless}
  2.53;                                   !- ASHRAE Taud {dimensionless}

OS:SizingPeriod:DesignDay,
  {af12edac-5fbf-4d5d-a4b3-79cc7d522907}, !- Handle
  Greeley Weld Co August .4% Condns DB=>MCWB 1, !- Name
  36,                                     !- Maximum Dry-Bulb Temperature {C}
  16.9,                                   !- Daily Dry-Bulb Temperature Range {deltaC}
  17,                                     !- Humidity Indicating Conditions at Maximum Dry-Bulb
  85421,                                  !- Barometric Pressure {Pa}
  3.5,                                    !- Wind Speed {m/s}
  140,                                    !- Wind Direction {deg}
  0,                                      !- Sky Clearness
  0,                                      !- Rain Indicator
  0,                                      !- Snow Indicator
  21,                                     !- Day of Month
  8,                                      !- Month
  SummerDesignDay,                        !- Day Type
  0,                                      !- Daylight Saving Time Indicator
  Wetbulb,                                !- Humidity Indicating Type
  ,                                       !- Humidity Indicating Day Schedule Name
  DefaultMultipliers,                     !- Dry-Bulb Temperature Range Modifier Type
  ,                                       !- Dry-Bulb Temperature Range Modifier Schedule Name
  ASHRAETau,                              !- Solar Model Indicator
  ,                                       !- Beam Solar Day Schedule Name
  ,                                       !- Diffuse Solar Day Schedule Name
  0.315,                                  !- ASHRAE Taub {dimensionless}
  2.469;                                  !- ASHRAE Taud {dimensionless}

OS:SizingPeriod:DesignDay,
  {b7e38b7f-ba78-47e9-8912-cfcb71ea8eb9}, !- Handle
  Greeley Weld Co August .4% Condns WB=>MCDB 1, !- Name
  29.9,                                   !- Maximum Dry-Bulb Temperature {C}
  16.9,                                   !- Daily Dry-Bulb Temperature Range {deltaC}
  20.5,                                   !- Humidity Indicating Conditions at Maximum Dry-Bulb
  85421,                                  !- Barometric Pressure {Pa}
  3.5,                                    !- Wind Speed {m/s}
  140,                                    !- Wind Direction {deg}
  0,                                      !- Sky Clearness
  0,                                      !- Rain Indicator
  0,                                      !- Snow Indicator
  21,                                     !- Day of Month
  8,                                      !- Month
  SummerDesignDay,                        !- Day Type
  0,                                      !- Daylight Saving Time Indicator
  Wetbulb,                                !- Humidity Indicating Type
  ,                                       !- Humidity Indicating Day Schedule Name
  DefaultMultipliers,                     !- Dry-Bulb Temperature Range Modifier Type
  ,                                       !- Dry-Bulb Temperature Range Modifier Schedule Name
  ASHRAETau,                              !- Solar Model Indicator
  ,                                       !- Beam Solar Day Schedule Name
  ,                                       !- Diffuse Solar Day Schedule Name
  0.315,                                  !- ASHRAE Taub {dimensionless}
  2.469;                                  !- ASHRAE Taud {dimensionless}

OS:SizingPeriod:DesignDay,
  {cb27af18-f6eb-4cca-bcc1-87831a1e9b16}, !- Handle
  Greeley Weld Co December .4% Condns DB=>MCWB 1, !- Name
  16,                                     !- Maximum Dry-Bulb Temperature {C}
  14.7,                                   !- Daily Dry-Bulb Temperature Range {deltaC}
  6.1,                                    !- Humidity Indicating Conditions at Maximum Dry-Bulb
  85421,                                  !- Barometric Pressure {Pa}
  3.5,                                    !- Wind Speed {m/s}
  140,                                    !- Wind Direction {deg}
  0,                                      !- Sky Clearness
  0,                                      !- Rain Indicator
  0,                                      !- Snow Indicator
  21,                                     !- Day of Month
  12,                                     !- Month
  SummerDesignDay,                        !- Day Type
  0,                                      !- Daylight Saving Time Indicator
  Wetbulb,                                !- Humidity Indicating Type
  ,                                       !- Humidity Indicating Day Schedule Name
  DefaultMultipliers,                     !- Dry-Bulb Temperature Range Modifier Type
  ,                                       !- Dry-Bulb Temperature Range Modifier Schedule Name
  ASHRAETau,                              !- Solar Model Indicator
  ,                                       !- Beam Solar Day Schedule Name
  ,                                       !- Diffuse Solar Day Schedule Name
  0.263,                                  !- ASHRAE Taub {dimensionless}
  2.58;                                   !- ASHRAE Taud {dimensionless}

OS:SizingPeriod:DesignDay,
  {faacf369-6981-4a94-be66-fe734d0a3c6f}, !- Handle
  Greeley Weld Co December .4% Condns WB=>MCDB 1, !- Name
  15.3,                                   !- Maximum Dry-Bulb Temperature {C}
  14.7,                                   !- Daily Dry-Bulb Temperature Range {deltaC}
  6.6,                                    !- Humidity Indicating Conditions at Maximum Dry-Bulb
  85421,                                  !- Barometric Pressure {Pa}
  3.5,                                    !- Wind Speed {m/s}
  140,                                    !- Wind Direction {deg}
  0,                                      !- Sky Clearness
  0,                                      !- Rain Indicator
  0,                                      !- Snow Indicator
  21,                                     !- Day of Month
  12,                                     !- Month
  SummerDesignDay,                        !- Day Type
  0,                                      !- Daylight Saving Time Indicator
  Wetbulb,                                !- Humidity Indicating Type
  ,                                       !- Humidity Indicating Day Schedule Name
  DefaultMultipliers,                     !- Dry-Bulb Temperature Range Modifier Type
  ,                                       !- Dry-Bulb Temperature Range Modifier Schedule Name
  ASHRAETau,                              !- Solar Model Indicator
  ,                                       !- Beam Solar Day Schedule Name
  ,                                       !- Diffuse Solar Day Schedule Name
  0.263,                                  !- ASHRAE Taub {dimensionless}
  2.58;                                   !- ASHRAE Taud {dimensionless}

OS:SizingPeriod:DesignDay,
  {38a360d4-2c3e-4e4d-ad22-ae57d5905ea5}, !- Handle
  Greeley Weld Co February .4% Condns DB=>MCWB 1, !- Name
  18.7,                                   !- Maximum Dry-Bulb Temperature {C}
  14.7,                                   !- Daily Dry-Bulb Temperature Range {deltaC}
  7.2,                                    !- Humidity Indicating Conditions at Maximum Dry-Bulb
  85421,                                  !- Barometric Pressure {Pa}
  3.5,                                    !- Wind Speed {m/s}
  140,                                    !- Wind Direction {deg}
  0,                                      !- Sky Clearness
  0,                                      !- Rain Indicator
  0,                                      !- Snow Indicator
  21,                                     !- Day of Month
  2,                                      !- Month
  SummerDesignDay,                        !- Day Type
  0,                                      !- Daylight Saving Time Indicator
  Wetbulb,                                !- Humidity Indicating Type
  ,                                       !- Humidity Indicating Day Schedule Name
  DefaultMultipliers,                     !- Dry-Bulb Temperature Range Modifier Type
  ,                                       !- Dry-Bulb Temperature Range Modifier Schedule Name
  ASHRAETau,                              !- Solar Model Indicator
  ,                                       !- Beam Solar Day Schedule Name
  ,                                       !- Diffuse Solar Day Schedule Name
  0.259,                                  !- ASHRAE Taub {dimensionless}
  2.528;                                  !- ASHRAE Taud {dimensionless}

OS:SizingPeriod:DesignDay,
  {ad9332b1-6fea-4b66-b9ff-2d00b92ea4bb}, !- Handle
  Greeley Weld Co February .4% Condns WB=>MCDB 1, !- Name
  17.5,                                   !- Maximum Dry-Bulb Temperature {C}
  14.7,                                   !- Daily Dry-Bulb Temperature Range {deltaC}
  7.5,                                    !- Humidity Indicating Conditions at Maximum Dry-Bulb
  85421,                                  !- Barometric Pressure {Pa}
  3.5,                                    !- Wind Speed {m/s}
  140,                                    !- Wind Direction {deg}
  0,                                      !- Sky Clearness
  0,                                      !- Rain Indicator
  0,                                      !- Snow Indicator
  21,                                     !- Day of Month
  2,                                      !- Month
  SummerDesignDay,                        !- Day Type
  0,                                      !- Daylight Saving Time Indicator
  Wetbulb,                                !- Humidity Indicating Type
  ,                                       !- Humidity Indicating Day Schedule Name
  DefaultMultipliers,                     !- Dry-Bulb Temperature Range Modifier Type
  ,                                       !- Dry-Bulb Temperature Range Modifier Schedule Name
  ASHRAETau,                              !- Solar Model Indicator
  ,                                       !- Beam Solar Day Schedule Name
  ,                                       !- Diffuse Solar Day Schedule Name
  0.259,                                  !- ASHRAE Taub {dimensionless}
  2.528;                                  !- ASHRAE Taud {dimensionless}

OS:SizingPeriod:DesignDay,
  {a55cd633-e0bc-44ef-92f0-a3272b265ae5}, !- Handle
  Greeley Weld Co January .4% Condns DB=>MCWB 1, !- Name
  16.2,                                   !- Maximum Dry-Bulb Temperature {C}
  14.9,                                   !- Daily Dry-Bulb Temperature Range {deltaC}
  6,                                      !- Humidity Indicating Conditions at Maximum Dry-Bulb
  85421,                                  !- Barometric Pressure {Pa}
  3.5,                                    !- Wind Speed {m/s}
  140,                                    !- Wind Direction {deg}