
OS:Version,
  {5e4ebf7d-3778-42a3-af98-1ae9af1ce231}, !- Handle
  2.8.1;                                  !- Version Identifier

OS:WeatherFile,
  {bd60a8c1-7bd4-436d-a003-96b7415e1ba6}, !- Handle
  Cloquet Carlton Co,                     !- City
  MN,                                     !- State Province Region
  USA,                                    !- Country
  customized weather file,                !- Data Source
  726558,                                 !- WMO Number
  46.7,                                   !- Latitude {deg}
  -92.5,                                  !- Longitude {deg}
  -6,                                     !- Time Zone {hr}
  390,                                    !- Elevation {m}
  file:////weather/USA_MN_Cloquet.Carlton.Co.726558_2016.epw, !- Url
  226BE93E;                               !- Checksum

OS:RunPeriodControl:DaylightSavingTime,
  {79d77b4b-ad91-43b5-9588-3bc122c703ee}, !- Handle
  2nd Sunday in March,                    !- Start Date
  1st Sunday in November;                 !- End Date

OS:YearDescription,
  {d70024d2-d3fc-4975-873b-a7a38aa66f88}, !- Handle
  2016,                                   !- Calendar Year
  ,                                       !- Day of Week for Start Day
  ;                                       !- Is Leap Year

OS:Timestep,
  {b7a8e3f8-ed3f-42d9-8f4b-d617afba54c0}, !- Handle
  4;                                      !- Number of Timesteps per Hour

OS:RunPeriod,
  {cf5a827c-930d-4842-a52e-130d616cb0a5}, !- Handle
  Run Period 1,                           !- Name
  1,                                      !- Begin Month
  1,                                      !- Begin Day of Month
  12,                                     !- End Month
  30,                                     !- End Day of Month
  ,                                       !- Use Weather File Holidays and Special Days
  ,                                       !- Use Weather File Daylight Saving Period
  ,                                       !- Apply Weekend Holiday Rule
  ,                                       !- Use Weather File Rain Indicators
  ,                                       !- Use Weather File Snow Indicators
  ;                                       !- Number of Times Runperiod to be Repeated

OS:Site,
  {2e017662-de68-4364-8404-42027a0fbcf0}, !- Handle
  Cloquet Carlton Co_MN_USA,              !- Name
  46.7,                                   !- Latitude {deg}
  -92.5,                                  !- Longitude {deg}
  -6,                                     !- Time Zone {hr}
  390,                                    !- Elevation {m}
  City;                                   !- Terrain

OS:Site:WaterMainsTemperature,
  {71cb34a5-d84b-4067-97ff-4b87f2b1a5f1}, !- Handle
  Correlation,                            !- Calculation Method
  ,                                       !- Temperature Schedule Name
  6.06666666666667,                       !- Annual Average Outdoor Air Temperature {C}
  29.76;                                  !- Maximum Difference In Monthly Average Outdoor Air Temperatures {deltaC}

OS:SizingPeriod:DesignDay,
  {88d2cb0d-2893-44b9-944c-551b0ea05254}, !- Handle
  Cloquet Carlton Co Ann Clg .4% Condns DB=>MWB 1, !- Name
  29,                                     !- Maximum Dry-Bulb Temperature {C}
  11.5,                                   !- Daily Dry-Bulb Temperature Range {deltaC}
  21.9,                                   !- Humidity Indicating Conditions at Maximum Dry-Bulb
  96727,                                  !- Barometric Pressure {Pa}
  4.3,                                    !- Wind Speed {m/s}
  200,                                    !- Wind Direction {deg}
  0,                                      !- Sky Clearness
  0,                                      !- Rain Indicator
  0,                                      !- Snow Indicator
  21,                                     !- Day of Month
  7,                                      !- Month
  SummerDesignDay,                        !- Day Type
  0,                                      !- Daylight Saving Time Indicator
  Wetbulb,                                !- Humidity Indicating Type
  ,                                       !- Humidity Indicating Day Schedule Name
  DefaultMultipliers,                     !- Dry-Bulb Temperature Range Modifier Type
  ,                                       !- Dry-Bulb Temperature Range Modifier Schedule Name
  ASHRAETau,                              !- Solar Model Indicator
  ,                                       !- Beam Solar Day Schedule Name
  ,                                       !- Diffuse Solar Day Schedule Name
  0.352,                                  !- ASHRAE Taub {dimensionless}
  2.36;                                   !- ASHRAE Taud {dimensionless}

OS:SizingPeriod:DesignDay,
  {315ce464-cde6-465d-b0d0-fb6ec141e75c}, !- Handle
  Cloquet Carlton Co Ann Clg .4% Condns WB=>MDB 1, !- Name
  27.4,                                   !- Maximum Dry-Bulb Temperature {C}
  11.5,                                   !- Daily Dry-Bulb Temperature Range {deltaC}
  23.7,                                   !- Humidity Indicating Conditions at Maximum Dry-Bulb
  96727,                                  !- Barometric Pressure {Pa}
  4.3,                                    !- Wind Speed {m/s}
  200,                                    !- Wind Direction {deg}
  0,                                      !- Sky Clearness
  0,                                      !- Rain Indicator
  0,                                      !- Snow Indicator
  21,                                     !- Day of Month
  7,                                      !- Month
  SummerDesignDay,                        !- Day Type
  0,                                      !- Daylight Saving Time Indicator
  Wetbulb,                                !- Humidity Indicating Type
  ,                                       !- Humidity Indicating Day Schedule Name
  DefaultMultipliers,                     !- Dry-Bulb Temperature Range Modifier Type
  ,                                       !- Dry-Bulb Temperature Range Modifier Schedule Name
  ASHRAETau,                              !- Solar Model Indicator
  ,                                       !- Beam Solar Day Schedule Name
  ,                                       !- Diffuse Solar Day Schedule Name
  0.352,                                  !- ASHRAE Taub {dimensionless}
  2.36;                                   !- ASHRAE Taud {dimensionless}

OS:SizingPeriod:DesignDay,
  {0652acba-12eb-471a-bf38-d7496303b9bb}, !- Handle
  Cloquet Carlton Co Ann Clg 1% Condns DB=>MWB 1, !- Name
  27.5,                                   !- Maximum Dry-Bulb Temperature {C}
  11.5,                                   !- Daily Dry-Bulb Temperature Range {deltaC}
  20.7,                                   !- Humidity Indicating Conditions at Maximum Dry-Bulb
  96727,                                  !- Barometric Pressure {Pa}
  4.3,                                    !- Wind Speed {m/s}
  200,                                    !- Wind Direction {deg}
  0,                                      !- Sky Clearness
  0,                                      !- Rain Indicator
  0,                                      !- Snow Indicator
  21,                                     !- Day of Month
  7,                                      !- Month
  SummerDesignDay,                        !- Day Type
  0,                                      !- Daylight Saving Time Indicator
  Wetbulb,                                !- Humidity Indicating Type
  ,                                       !- Humidity Indicating Day Schedule Name
  DefaultMultipliers,                     !- Dry-Bulb Temperature Range Modifier Type
  ,                                       !- Dry-Bulb Temperature Range Modifier Schedule Name
  ASHRAETau,                              !- Solar Model Indicator
  ,                                       !- Beam Solar Day Schedule Name
  ,                                       !- Diffuse Solar Day Schedule Name
  0.352,                                  !- ASHRAE Taub {dimensionless}
  2.36;                                   !- ASHRAE Taud {dimensionless}

OS:SizingPeriod:DesignDay,
  {14b14f66-e6ce-4602-872f-474d07e498ab}, !- Handle
  Cloquet Carlton Co Ann Clg 2% Condns DP=>MDB 1, !- Name
  23.2,                                   !- Maximum Dry-Bulb Temperature {C}
  11.5,                                   !- Daily Dry-Bulb Temperature Range {deltaC}
  19.7,                                   !- Humidity Indicating Conditions at Maximum Dry-Bulb
  96727,                                  !- Barometric Pressure {Pa}
  4.3,                                    !- Wind Speed {m/s}
  200,                                    !- Wind Direction {deg}
  0,                                      !- Sky Clearness
  0,                                      !- Rain Indicator
  0,                                      !- Snow Indicator
  21,                                     !- Day of Month
  7,                                      !- Month
  SummerDesignDay,                        !- Day Type
  0,                                      !- Daylight Saving Time Indicator
  Dewpoint,                               !- Humidity Indicating Type
  ,                                       !- Humidity Indicating Day Schedule Name
  DefaultMultipliers,                     !- Dry-Bulb Temperature Range Modifier Type
  ,                                       !- Dry-Bulb Temperature Range Modifier Schedule Name
  ASHRAETau,                              !- Solar Model Indicator
  ,                                       !- Beam Solar Day Schedule Name
  ,                                       !- Diffuse Solar Day Schedule Name
  0.352,                                  !- ASHRAE Taub {dimensionless}
  2.36;                                   !- ASHRAE Taud {dimensionless}

OS:SizingPeriod:DesignDay,
  {41f3a3e7-c302-4232-b6d2-fb3829c4de99}, !- Handle
  Cloquet Carlton Co Ann Htg 99% Condns DB 1, !- Name
  -24.6,                                  !- Maximum Dry-Bulb Temperature {C}
  0,                                      !- Daily Dry-Bulb Temperature Range {deltaC}
  -24.6,                                  !- Humidity Indicating Conditions at Maximum Dry-Bulb
  96727,                                  !- Barometric Pressure {Pa}
  3.2,                                    !- Wind Speed {m/s}
  290,                                    !- Wind Direction {deg}
  0,                                      !- Sky Clearness
  0,                                      !- Rain Indicator
  0,                                      !- Snow Indicator
  21,                                     !- Day of Month
  1,                                      !- Month
  WinterDesignDay,                        !- Day Type
  0,                                      !- Daylight Saving Time Indicator
  Wetbulb,                                !- Humidity Indicating Type
  ,                                       !- Humidity Indicating Day Schedule Name
  DefaultMultipliers,                     !- Dry-Bulb Temperature Range Modifier Type
  ,                                       !- Dry-Bulb Temperature Range Modifier Schedule Name
  ASHRAEClearSky;                         !- Solar Model Indicator

OS:SizingPeriod:DesignDay,
  {2b0c016a-a6ec-429b-9f30-c034df1bbc70}, !- Handle
  Cloquet Carlton Co Ann Htg 99.6% Condns DB 1, !- Name
  -27.7,                                  !- Maximum Dry-Bulb Temperature {C}
  0,                                      !- Daily Dry-Bulb Temperature Range {deltaC}
  -27.7,                                  !- Humidity Indicating Conditions at Maximum Dry-Bulb
  96727,                                  !- Barometric Pressure {Pa}
  3.2,                                    !- Wind Speed {m/s}
  290,                                    !- Wind Direction {deg}
  0,                                      !- Sky Clearness
  0,                                      !- Rain Indicator
  0,                                      !- Snow Indicator
  21,                                     !- Day of Month
  1,                                      !- Month
  WinterDesignDay,                        !- Day Type
  0,                                      !- Daylight Saving Time Indicator
  Wetbulb,                                !- Humidity Indicating Type
  ,                                       !- Humidity Indicating Day Schedule Name
  DefaultMultipliers,                     !- Dry-Bulb Temperature Range Modifier Type
  ,                                       !- Dry-Bulb Temperature Range Modifier Schedule Name
  ASHRAEClearSky;                         !- Solar Model Indicator

OS:SizingPeriod:DesignDay,
  {2e2bbea5-1f6a-45f1-9241-8a5f868e1a42}, !- Handle
  Cloquet Carlton Co Ann Htg Wind 99% Condns WS=>MCDB 1, !- Name
  -11.1,                                  !- Maximum Dry-Bulb Temperature {C}
  0,                                      !- Daily Dry-Bulb Temperature Range {deltaC}
  -11.1,                                  !- Humidity Indicating Conditions at Maximum Dry-Bulb
  96727,                                  !- Barometric Pressure {Pa}
  9.3,                                    !- Wind Speed {m/s}
  290,                                    !- Wind Direction {deg}
  0,                                      !- Sky Clearness
  0,                                      !- Rain Indicator
  0,                                      !- Snow Indicator
  21,                                     !- Day of Month
  1,                                      !- Month
  WinterDesignDay,                        !- Day Type
  0,                                      !- Daylight Saving Time Indicator
  Wetbulb,                                !- Humidity Indicating Type
  ,                                       !- Humidity Indicating Day Schedule Name
  DefaultMultipliers,                     !- Dry-Bulb Temperature Range Modifier Type
  ,                                       !- Dry-Bulb Temperature Range Modifier Schedule Name
  ASHRAEClearSky;                         !- Solar Model Indicator

OS:SizingPeriod:DesignDay,
  {b8f83929-52ac-4474-9321-46f80551722f}, !- Handle
  Cloquet Carlton Co April .4% Condns DB=>MCWB 1, !- Name
  22.7,                                   !- Maximum Dry-Bulb Temperature {C}
  11,                                     !- Daily Dry-Bulb Temperature Range {deltaC}
  11.9,                                   !- Humidity Indicating Conditions at Maximum Dry-Bulb
  96727,                                  !- Barometric Pressure {Pa}
  4.3,                                    !- Wind Speed {m/s}
  200,                                    !- Wind Direction {deg}
  0,                                      !- Sky Clearness
  0,                                      !- Rain Indicator
  0,                                      !- Snow Indicator
  21,                                     !- Day of Month
  4,                                      !- Month
  SummerDesignDay,                        !- Day Type
  0,                                      !- Daylight Saving Time Indicator
  Wetbulb,                                !- Humidity Indicating Type
  ,                                       !- Humidity Indicating Day Schedule Name
  DefaultMultipliers,                     !- Dry-Bulb Temperature Range Modifier Type
  ,                                       !- Dry-Bulb Temperature Range Modifier Schedule Name
  ASHRAETau,                              !- Solar Model Indicator
  ,                                       !- Beam Solar Day Schedule Name
  ,                                       !- Diffuse Solar Day Schedule Name
  0.307,                                  !- ASHRAE Taub {dimensionless}
  2.454;                                  !- ASHRAE Taud {dimensionless}

OS:SizingPeriod:DesignDay,
  {03cf759b-1888-4ce1-afce-9a17d6ac0a6d}, !- Handle
  Cloquet Carlton Co April .4% Condns WB=>MCDB 1, !- Name
  19.6,                                   !- Maximum Dry-Bulb Temperature {C}
  11,                                     !- Daily Dry-Bulb Temperature Range {deltaC}
  14.9,                                   !- Humidity Indicating Conditions at Maximum Dry-Bulb
  96727,                                  !- Barometric Pressure {Pa}
  4.3,                                    !- Wind Speed {m/s}
  200,                                    !- Wind Direction {deg}
  0,                                      !- Sky Clearness
  0,                                      !- Rain Indicator
  0,                                      !- Snow Indicator
  21,                                     !- Day of Month
  4,                                      !- Month
  SummerDesignDay,                        !- Day Type
  0,                                      !- Daylight Saving Time Indicator
  Wetbulb,                                !- Humidity Indicating Type
  ,                                       !- Humidity Indicating Day Schedule Name
  DefaultMultipliers,                     !- Dry-Bulb Temperature Range Modifier Type
  ,                                       !- Dry-Bulb Temperature Range Modifier Schedule Name
  ASHRAETau,                              !- Solar Model Indicator
  ,                                       !- Beam Solar Day Schedule Name
  ,                                       !- Diffuse Solar Day Schedule Name
  0.307,                                  !- ASHRAE Taub {dimensionless}
  2.454;                                  !- ASHRAE Taud {dimensionless}

OS:SizingPeriod:DesignDay,
  {d9ce65b5-8a88-4303-89ca-c55e94ca5c2f}, !- Handle
  Cloquet Carlton Co August .4% Condns DB=>MCWB 1, !- Name
  31.1,                                   !- Maximum Dry-Bulb Temperature {C}
  11,                                     !- Daily Dry-Bulb Temperature Range {deltaC}
  23,                                     !- Humidity Indicating Conditions at Maximum Dry-Bulb
  96727,                                  !- Barometric Pressure {Pa}
  4.3,                                    !- Wind Speed {m/s}
  200,                                    !- Wind Direction {deg}
  0,                                      !- Sky Clearness
  0,                                      !- Rain Indicator
  0,                                      !- Snow Indicator
  21,                                     !- Day of Month
  8,                                      !- Month
  SummerDesignDay,                        !- Day Type
  0,                                      !- Daylight Saving Time Indicator
  Wetbulb,                                !- Humidity Indicating Type
  ,                                       !- Humidity Indicating Day Schedule Name
  DefaultMultipliers,                     !- Dry-Bulb Temperature Range Modifier Type
  ,                                       !- Dry-Bulb Temperature Range Modifier Schedule Name
  ASHRAETau,                              !- Solar Model Indicator
  ,                                       !- Beam Solar Day Schedule Name
  ,                                       !- Diffuse Solar Day Schedule Name
  0.354,                                  !- ASHRAE Taub {dimensionless}
  2.401;                                  !- ASHRAE Taud {dimensionless}

OS:SizingPeriod:DesignDay,
  {e6a830d7-2fc1-4b41-b36e-785045f28337}, !- Handle
  Cloquet Carlton Co August .4% Condns WB=>MCDB 1, !- Name
  29.1,                                   !- Maximum Dry-Bulb Temperature {C}
  11,                                     !- Daily Dry-Bulb Temperature Range {deltaC}
  25.3,                                   !- Humidity Indicating Conditions at Maximum Dry-Bulb
  96727,                                  !- Barometric Pressure {Pa}
  4.3,                                    !- Wind Speed {m/s}
  200,                                    !- Wind Direction {deg}
  0,                                      !- Sky Clearness
  0,                                      !- Rain Indicator
  0,                                      !- Snow Indicator
  21,                                     !- Day of Month
  8,                                      !- Month
  SummerDesignDay,                        !- Day Type
  0,                                      !- Daylight Saving Time Indicator
  Wetbulb,                                !- Humidity Indicating Type
  ,                                       !- Humidity Indicating Day Schedule Name
  DefaultMultipliers,                     !- Dry-Bulb Temperature Range Modifier Type
  ,                                       !- Dry-Bulb Temperature Range Modifier Schedule Name
  ASHRAETau,                              !- Solar Model Indicator
  ,                                       !- Beam Solar Day Schedule Name
  ,                                       !- Diffuse Solar Day Schedule Name
  0.354,                                  !- ASHRAE Taub {dimensionless}
  2.401;                                  !- ASHRAE Taud {dimensionless}

OS:SizingPeriod:DesignDay,
  {37573b64-bbed-407d-ba8a-fa0038e377b5}, !- Handle
  Cloquet Carlton Co December .4% Condns DB=>MCWB 1, !- Name
  6.2,                                    !- Maximum Dry-Bulb Temperature {C}
  7.8,                                    !- Daily Dry-Bulb Temperature Range {deltaC}
  3,                                      !- Humidity Indicating Conditions at Maximum Dry-Bulb
  96727,                                  !- Barometric Pressure {Pa}
  4.3,                                    !- Wind Speed {m/s}
  200,                                    !- Wind Direction {deg}
  0,                                      !- Sky Clearness
  0,                                      !- Rain Indicator
  0,                                      !- Snow Indicator
  21,                                     !- Day of Month
  12,                                     !- Month
  SummerDesignDay,                        !- Day Type
  0,                                      !- Daylight Saving Time Indicator
  Wetbulb,                                !- Humidity Indicating Type
  ,                                       !- Humidity Indicating Day Schedule Name
  DefaultMultipliers,                     !- Dry-Bulb Temperature Range Modifier Type
  ,                                       !- Dry-Bulb Temperature Range Modifier Schedule Name
  ASHRAETau,                              !- Solar Model Indicator
  ,                                       !- Beam Solar Day Schedule Name
  ,                                       !- Diffuse Solar Day Schedule Name
  0.273,                                  !- ASHRAE Taub {dimensionless}
  2.537;                                  !- ASHRAE Taud {dimensionless}

OS:SizingPeriod:DesignDay,
  {5a8f87a2-e429-4df7-9b51-ab505b6d69b9}, !- Handle
  Cloquet Carlton Co December .4% Condns WB=>MCDB 1, !- Name
  4.9,                                    !- Maximum Dry-Bulb Temperature {C}
  7.8,                                    !- Daily Dry-Bulb Temperature Range {deltaC}
  3.7,                                    !- Humidity Indicating Conditions at Maximum Dry-Bulb
  96727,                                  !- Barometric Pressure {Pa}
  4.3,                                    !- Wind Speed {m/s}
  200,                                    !- Wind Direction {deg}
  0,                                      !- Sky Clearness
  0,                                      !- Rain Indicator
  0,                                      !- Snow Indicator
  21,                                     !- Day of Month
  12,                                     !- Month
  SummerDesignDay,                        !- Day Type
  0,                                      !- Daylight Saving Time Indicator
  Wetbulb,                                !- Humidity Indicating Type
  ,                                       !- Humidity Indicating Day Schedule Name
  DefaultMultipliers,                     !- Dry-Bulb Temperature Range Modifier Type
  ,                                       !- Dry-Bulb Temperature Range Modifier Schedule Name
  ASHRAETau,                              !- Solar Model Indicator
  ,                                       !- Beam Solar Day Schedule Name
  ,                                       !- Diffuse Solar Day Schedule Name
  0.273,                                  !- ASHRAE Taub {dimensionless}
  2.537;                                  !- ASHRAE Taud {dimensionless}

OS:SizingPeriod:DesignDay,
  {9fdb8f01-ae16-408d-9c19-f8e6d9967f9d}, !- Handle
  Cloquet Carlton Co February .4% Condns DB=>MCWB 1, !- Name
  7.6,                                    !- Maximum Dry-Bulb Temperature {C}
  9.7,                                    !- Daily Dry-Bulb Temperature Range {deltaC}
  3.9,                                    !- Humidity Indicating Conditions at Maximum Dry-Bulb
  96727,                                  !- Barometric Pressure {Pa}
  4.3,                                    !- Wind Speed {m/s}
  200,                                    !- Wind Direction {deg}
  0,                                      !- Sky Clearness
  0,                                      !- Rain Indicator
  0,                                      !- Snow Indicator
  21,                                     !- Day of Month
  2,                                      !- Month
  SummerDesignDay,                        !- Day Type
  0,                                      !- Daylight Saving Time Indicator
  Wetbulb,                                !- Humidity Indicating Type
  ,                                       !- Humidity Indicating Day Schedule Name
  DefaultMultipliers,                     !- Dry-Bulb Temperature Range Modifier Type
  ,                                       !- Dry-Bulb Temperature Range Modifier Schedule Name
  ASHRAETau,                              !- Solar Model Indicator
  ,                                       !- Beam Solar Day Schedule Name
  ,                                       !- Diffuse Solar Day Schedule Name
  0.267,                                  !- ASHRAE Taub {dimensionless}
  2.467;                                  !- ASHRAE Taud {dimensionless}

OS:SizingPeriod:DesignDay,
  {5f5f8f91-c793-4108-acc7-17ef4f2d91fd}, !- Handle
  Cloquet Carlton Co February .4% Condns WB=>MCDB 1, !- Name
  6.8,                                    !- Maximum Dry-Bulb Temperature {C}
  9.7,                                    !- Daily Dry-Bulb Temperature Range {deltaC}
  5.1,                                    !- Humidity Indicating Conditions at Maximum Dry-Bulb
  96727,                                  !- Barometric Pressure {Pa}
  4.3,                                    !- Wind Speed {m/s}
  200,                                    !- Wind Direction {deg}
  0,                                      !- Sky Clearness
  0,                                      !- Rain Indicator
  0,                                      !- Snow Indicator
  21,                                     !- Day of Month
  2,                                      !- Month
  SummerDesignDay,                        !- Day Type
  0,                                      !- Daylight Saving Time Indicator
  Wetbulb,                                !- Humidity Indicating Type
  ,                                       !- Humidity Indicating Day Schedule Name
  DefaultMultipliers,                     !- Dry-Bulb Temperature Range Modifier Type
  ,                                       !- Dry-Bulb Temperature Range Modifier Schedule Name
  ASHRAETau,                              !- Solar Model Indicator
  ,                                       !- Beam Solar Day Schedule Name
  ,                                       !- Diffuse Solar Day Schedule Name
  0.267,                                  !- ASHRAE Taub {dimensionless}
  2.467;                                  !- ASHRAE Taud {dimensionless}

OS:SizingPeriod:DesignDay,
  {e485fdbd-6962-4f2c-9522-ff4283826fa0}, !- Handle
  Cloquet Carlton Co January .4% Condns DB=>MCWB 1, !- Name
  5.9,                                    !- Maximum Dry-Bulb Temperature {C}
  9.3,                                    !- Daily Dry-Bulb Temperature Range {deltaC}
  2.9,                                    !- Humidity Indicating Conditions at Maximum Dry-Bulb
  96727,                                  !- Barometric Pressure {Pa}
  4.3,                                    !- Wind Speed {m/s}
  200,                                    !- Wind Direction {deg}
  0,                                      !- Sky Clearness
  0,                                      !- Rain Indicator
  0,                                      !- Snow Indicator
  21,                                     !- Day of Month
  1,                                      !- Month
  SummerDesignDay,                        !- Day Type
  0,                                      !- Daylight Saving Time Indicator
  Wetbulb,                                !- Humidity Indicating Type
  ,                                       !- Humidity Indicating Day Schedule Name
  DefaultMultipliers,                     !- Dry-Bulb Temperature Range Modifier Type
  ,                                       !- Dry-Bulb Temperature Range Modifier Schedule Name
  ASHRAETau,                              !- Solar Model Indicator
  ,                                       !- Beam Solar Day Schedule Name
  ,                                       !- Diffuse Solar Day Schedule Name
  0.269,                                  !- ASHRAE Taub {dimensionless}
  2.502;                                  !- ASHRAE Taud {dimensionless}

OS:SizingPeriod:DesignDay,
  {4453772e-648c-4f03-ab48-7a7070e0df46}, !- Handle
  Cloquet Carlton Co January .4% Condns WB=>MCDB 1, !- Name
  5.3,                                    !- Maximum Dry-Bulb Temperature {C}
  9.3,                                    !- Daily Dry-Bulb Temperature Range {deltaC}