
OS:Version,
  {e455bbf6-7fbd-4ab1-aafb-7c0648a72de5}, !- Handle
  3.4.0;                                  !- Version Identifier

OS:Facility,
  {5e630600-2e00-412f-85dc-4cb051df3877}; !- Handle

OS:Site,
  {4f330008-cb83-4176-b93f-466f7e455056}, !- Handle
  Leesburg Executive_VA_USA,              !- Name
  39.08,                                  !- Latitude {deg}
  -77.55,                                 !- Longitude {deg}
  -5,                                     !- Time Zone {hr}
  119,                                    !- Elevation {m}
  City;                                   !- Terrain

OS:SimulationControl,
  {5e973ff8-ac5f-4f49-9830-8e97c59b1ddc}, !- Handle
  ,                                       !- Do Zone Sizing Calculation
  ,                                       !- Do System Sizing Calculation
  ,                                       !- Do Plant Sizing Calculation
  No,                                     !- Run Simulation for Sizing Periods
  Yes,                                    !- Run Simulation for Weather File Run Periods
  ,                                       !- Loads Convergence Tolerance Value {W}
  ,                                       !- Temperature Convergence Tolerance Value {deltaC}
  ,                                       !- Solar Distribution
  ,                                       !- Maximum Number of Warmup Days
  ,                                       !- Minimum Number of Warmup Days
  No,                                     !- Do HVAC Sizing Simulation for Sizing Periods
  1;                                      !- Maximum Number of HVAC Sizing Simulation Passes

OS:Sizing:Parameters,
  {633a7c0e-22d5-4d9d-baeb-b1f9ea934933}, !- Handle
  1.25,                                   !- Heating Sizing Factor
  1.15;                                   !- Cooling Sizing Factor

OS:Timestep,
  {5e2411e8-74e1-48d7-83a0-783c3d25d0f0}, !- Handle
  4;                                      !- Number of Timesteps per Hour

OS:ShadowCalculation,
  {41a3fdff-16d9-4243-84fc-e7206792d6fa}, !- Handle
  PolygonClipping,                        !- Shading Calculation Method
  ,                                       !- Shading Calculation Update Frequency Method
  20,                                     !- Shading Calculation Update Frequency
  15000,                                  !- Maximum Figures in Shadow Overlap Calculations
  ,                                       !- Polygon Clipping Algorithm
  512,                                    !- Pixel Counting Resolution
  ,                                       !- Sky Diffuse Modeling Algorithm
  No,                                     !- Output External Shading Calculation Results
  No,                                     !- Disable Self-Shading Within Shading Zone Groups
  No;                                     !- Disable Self-Shading From Shading Zone Groups to Other Zones

OS:HeatBalanceAlgorithm,
  {bbf2f87e-32a5-4fdc-9104-95cdbb7160d2}, !- Handle
  ConductionTransferFunction,             !- Algorithm
  200;                                    !- Surface Temperature Upper Limit {C}

OS:RunPeriod,
  {d5becc9c-0614-4a75-9953-9bba88399fc8}, !- Handle
  Run Period 1,                           !- Name
  1,                                      !- Begin Month
  1,                                      !- Begin Day of Month
  12,                                     !- End Month
  31,                                     !- End Day of Month
  ,                                       !- Use Weather File Holidays and Special Days
  ,                                       !- Use Weather File Daylight Saving Period
  ,                                       !- Apply Weekend Holiday Rule
  ,                                       !- Use Weather File Rain Indicators
  ,                                       !- Use Weather File Snow Indicators
  ;                                       !- Number of Times Runperiod to be Repeated

OS:LifeCycleCost:Parameters,
  {2fdc2b0f-4119-416a-895f-6270710c81df}, !- Handle
  ,                                       !- Analysis Type
  ,                                       !- Discounting Convention
  ,                                       !- Inflation Approach
  ,                                       !- Real Discount Rate
  ,                                       !- Nominal Discount Rate
  ,                                       !- Inflation
  ,                                       !- Base Date Month
  ,                                       !- Base Date Year
  ,                                       !- Service Date Month
  ,                                       !- Service Date Year
  ;                                       !- Length of Study Period in Years

OS:WeatherFile,
  {bc6b50ef-5458-47a6-9bc4-2581b671a13e}, !- Handle
  Leesburg Executive,                     !- City
  VA,                                     !- State Province Region
  USA,                                    !- Country
  customized weather file,                !- Data Source
  724055,                                 !- WMO Number
  39.08,                                  !- Latitude {deg}
  -77.55,                                 !- Longitude {deg}
  -5,                                     !- Time Zone {hr}
  119,                                    !- Elevation {m}
  /weather/G5101070.epw,                  !- Url
  226BE93E,                               !- Checksum
  ,                                       !- Start Date Actual Year
  Friday;                                 !- Start Day of Week

OS:Site:WaterMainsTemperature,
  {08177736-99e0-4751-9c40-c112df0ce78b}, !- Handle
  Correlation,                            !- Calculation Method
  ,                                       !- Temperature Schedule Name
  13.415,                                 !- Annual Average Outdoor Air Temperature {C}
  23.67;                                  !- Maximum Difference In Monthly Average Outdoor Air Temperatures {deltaC}

OS:SizingPeriod:DesignDay,
  {b7227d8f-1f15-4e83-a307-d6c0a5a16a7e}, !- Handle
  Leesburg Executive Ann Clg .4% Condns DB=>MWB 1, !- Name
  35.1,                                   !- Maximum Dry-Bulb Temperature {C}
  11.8,                                   !- Daily Dry-Bulb Temperature Range {deltaC}
  99904,                                  !- Barometric Pressure {Pa}
  2.9,                                    !- Wind Speed {m/s}
  240,                                    !- Wind Direction {deg}
  ,                                       !- Sky Clearness
  No,                                     !- Rain Indicator
  No,                                     !- Snow Indicator
  21,                                     !- Day of Month
  7,                                      !- Month
  SummerDesignDay,                        !- Day Type
  No,                                     !- Daylight Saving Time Indicator
  Wetbulb,                                !- Humidity Condition Type
  ,                                       !- Humidity Condition Day Schedule Name
  24.3,                                   !- Wetbulb or DewPoint at Maximum Dry-Bulb {C}
  ,                                       !- Humidity Ratio at Maximum Dry-Bulb {kgWater/kgDryAir}
  ,                                       !- Enthalpy at Maximum Dry-Bulb {J/kg}
  DefaultMultipliers,                     !- Dry-Bulb Temperature Range Modifier Type
  ,                                       !- Dry-Bulb Temperature Range Modifier Day Schedule Name
  ASHRAETau,                              !- Solar Model Indicator
  ,                                       !- Beam Solar Day Schedule Name
  ,                                       !- Diffuse Solar Day Schedule Name
  0.453,                                  !- ASHRAE Clear Sky Optical Depth for Beam Irradiance {dimensionless}
  2.124;                                  !- ASHRAE Clear Sky Optical Depth for Diffuse Irradiance {dimensionless}

OS:SizingPeriod:DesignDay,
  {4b36ad61-86c0-4de2-8f40-469c677e364e}, !- Handle
  Leesburg Executive Ann Clg .4% Condns WB=>MDB 1, !- Name
  32.5,                                   !- Maximum Dry-Bulb Temperature {C}
  11.8,                                   !- Daily Dry-Bulb Temperature Range {deltaC}
  99904,                                  !- Barometric Pressure {Pa}
  2.9,                                    !- Wind Speed {m/s}
  240,                                    !- Wind Direction {deg}
  ,                                       !- Sky Clearness
  No,                                     !- Rain Indicator
  No,                                     !- Snow Indicator
  21,                                     !- Day of Month
  7,                                      !- Month
  SummerDesignDay,                        !- Day Type
  No,                                     !- Daylight Saving Time Indicator
  Wetbulb,                                !- Humidity Condition Type
  ,                                       !- Humidity Condition Day Schedule Name
  26.2,                                   !- Wetbulb or DewPoint at Maximum Dry-Bulb {C}
  ,                                       !- Humidity Ratio at Maximum Dry-Bulb {kgWater/kgDryAir}
  ,                                       !- Enthalpy at Maximum Dry-Bulb {J/kg}
  DefaultMultipliers,                     !- Dry-Bulb Temperature Range Modifier Type
  ,                                       !- Dry-Bulb Temperature Range Modifier Day Schedule Name
  ASHRAETau,                              !- Solar Model Indicator
  ,                                       !- Beam Solar Day Schedule Name
  ,                                       !- Diffuse Solar Day Schedule Name
  0.453,                                  !- ASHRAE Clear Sky Optical Depth for Beam Irradiance {dimensionless}
  2.124;                                  !- ASHRAE Clear Sky Optical Depth for Diffuse Irradiance {dimensionless}

OS:SizingPeriod:DesignDay,
  {9b64df9f-774b-48cc-a9f2-22d3a02bfd24}, !- Handle
  Leesburg Executive Ann Clg 1% Condns DB=>MWB 1, !- Name
  33.7,                                   !- Maximum Dry-Bulb Temperature {C}
  11.8,                                   !- Daily Dry-Bulb Temperature Range {deltaC}
  99904,                                  !- Barometric Pressure {Pa}
  2.9,                                    !- Wind Speed {m/s}
  240,                                    !- Wind Direction {deg}
  ,                                       !- Sky Clearness
  No,                                     !- Rain Indicator
  No,                                     !- Snow Indicator
  21,                                     !- Day of Month
  7,                                      !- Month
  SummerDesignDay,                        !- Day Type
  No,                                     !- Daylight Saving Time Indicator
  Wetbulb,                                !- Humidity Condition Type
  ,                                       !- Humidity Condition Day Schedule Name
  23.9,                                   !- Wetbulb or DewPoint at Maximum Dry-Bulb {C}
  ,                                       !- Humidity Ratio at Maximum Dry-Bulb {kgWater/kgDryAir}
  ,                                       !- Enthalpy at Maximum Dry-Bulb {J/kg}
  DefaultMultipliers,                     !- Dry-Bulb Temperature Range Modifier Type
  ,                                       !- Dry-Bulb Temperature Range Modifier Day Schedule Name
  ASHRAETau,                              !- Solar Model Indicator
  ,                                       !- Beam Solar Day Schedule Name
  ,                                       !- Diffuse Solar Day Schedule Name
  0.453,                                  !- ASHRAE Clear Sky Optical Depth for Beam Irradiance {dimensionless}
  2.124;                                  !- ASHRAE Clear Sky Optical Depth for Diffuse Irradiance {dimensionless}

OS:SizingPeriod:DesignDay,
  {f02bfbf2-e3d1-44c7-8978-180094c14724}, !- Handle
  Leesburg Executive Ann Clg 2% Condns DP=>MDB 1, !- Name
  27.2,                                   !- Maximum Dry-Bulb Temperature {C}
  11.8,                                   !- Daily Dry-Bulb Temperature Range {deltaC}
  99904,                                  !- Barometric Pressure {Pa}
  2.9,                                    !- Wind Speed {m/s}
  240,                                    !- Wind Direction {deg}
  ,                                       !- Sky Clearness
  No,                                     !- Rain Indicator
  No,                                     !- Snow Indicator
  21,                                     !- Day of Month
  7,                                      !- Month
  SummerDesignDay,                        !- Day Type
  No,                                     !- Daylight Saving Time Indicator
  Dewpoint,                               !- Humidity Condition Type
  ,                                       !- Humidity Condition Day Schedule Name
  22.8,                                   !- Wetbulb or DewPoint at Maximum Dry-Bulb {C}
  ,                                       !- Humidity Ratio at Maximum Dry-Bulb {kgWater/kgDryAir}
  ,                                       !- Enthalpy at Maximum Dry-Bulb {J/kg}
  DefaultMultipliers,                     !- Dry-Bulb Temperature Range Modifier Type
  ,                                       !- Dry-Bulb Temperature Range Modifier Day Schedule Name
  ASHRAETau,                              !- Solar Model Indicator
  ,                                       !- Beam Solar Day Schedule Name
  ,                                       !- Diffuse Solar Day Schedule Name
  0.453,                                  !- ASHRAE Clear Sky Optical Depth for Beam Irradiance {dimensionless}
  2.124;                                  !- ASHRAE Clear Sky Optical Depth for Diffuse Irradiance {dimensionless}

OS:SizingPeriod:DesignDay,
  {57746627-76fb-459c-b46d-f6c587e451dd}, !- Handle
  Leesburg Executive Ann Htg 99% Condns DB 1, !- Name
  -7.7,                                   !- Maximum Dry-Bulb Temperature {C}
  0,                                      !- Daily Dry-Bulb Temperature Range {deltaC}
  99904,                                  !- Barometric Pressure {Pa}
  2.8,                                    !- Wind Speed {m/s}
  300,                                    !- Wind Direction {deg}
  0,                                      !- Sky Clearness
  No,                                     !- Rain Indicator
  No,                                     !- Snow Indicator
  21,                                     !- Day of Month
  1,                                      !- Month
  WinterDesignDay,                        !- Day Type
  No,                                     !- Daylight Saving Time Indicator
  Wetbulb,                                !- Humidity Condition Type
  ,                                       !- Humidity Condition Day Schedule Name
  -7.7,                                   !- Wetbulb or DewPoint at Maximum Dry-Bulb {C}
  ,                                       !- Humidity Ratio at Maximum Dry-Bulb {kgWater/kgDryAir}
  ,                                       !- Enthalpy at Maximum Dry-Bulb {J/kg}
  DefaultMultipliers,                     !- Dry-Bulb Temperature Range Modifier Type
  ,                                       !- Dry-Bulb Temperature Range Modifier Day Schedule Name
  ASHRAEClearSky;                         !- Solar Model Indicator

OS:SizingPeriod:DesignDay,
  {919aaa11-b65c-4a4f-a04a-90cd7b5dadf1}, !- Handle
  Leesburg Executive Ann Htg 99.6% Condns DB 1, !- Name
  -9.7,                                   !- Maximum Dry-Bulb Temperature {C}
  0,                                      !- Daily Dry-Bulb Temperature Range {deltaC}
  99904,                                  !- Barometric Pressure {Pa}
  2.8,                                    !- Wind Speed {m/s}
  300,                                    !- Wind Direction {deg}
  0,                                      !- Sky Clearness
  No,                                     !- Rain Indicator
  No,                                     !- Snow Indicator
  21,                                     !- Day of Month
  1,                                      !- Month
  WinterDesignDay,                        !- Day Type
  No,                                     !- Daylight Saving Time Indicator
  Wetbulb,                                !- Humidity Condition Type
  ,                                       !- Humidity Condition Day Schedule Name
  -9.7,                                   !- Wetbulb or DewPoint at Maximum Dry-Bulb {C}
  ,                                       !- Humidity Ratio at Maximum Dry-Bulb {kgWater/kgDryAir}
  ,                                       !- Enthalpy at Maximum Dry-Bulb {J/kg}
  DefaultMultipliers,                     !- Dry-Bulb Temperature Range Modifier Type
  ,                                       !- Dry-Bulb Temperature Range Modifier Day Schedule Name
  ASHRAEClearSky;                         !- Solar Model Indicator

OS:SizingPeriod:DesignDay,
  {3597aa1a-90db-4a29-8e3b-bf27166b1ab7}, !- Handle
  Leesburg Executive Ann Htg Wind 99% Condns WS=>MCDB 1, !- Name
  0.5,                                    !- Maximum Dry-Bulb Temperature {C}
  0,                                      !- Daily Dry-Bulb Temperature Range {deltaC}
  99904,                                  !- Barometric Pressure {Pa}
  11.2,                                   !- Wind Speed {m/s}
  300,                                    !- Wind Direction {deg}
  0,                                      !- Sky Clearness
  No,                                     !- Rain Indicator
  No,                                     !- Snow Indicator
  21,                                     !- Day of Month
  1,                                      !- Month
  WinterDesignDay,                        !- Day Type
  No,                                     !- Daylight Saving Time Indicator
  Wetbulb,                                !- Humidity Condition Type
  ,                                       !- Humidity Condition Day Schedule Name
  0.5,                                    !- Wetbulb or DewPoint at Maximum Dry-Bulb {C}
  ,                                       !- Humidity Ratio at Maximum Dry-Bulb {kgWater/kgDryAir}
  ,                                       !- Enthalpy at Maximum Dry-Bulb {J/kg}
  DefaultMultipliers,                     !- Dry-Bulb Temperature Range Modifier Type
  ,                                       !- Dry-Bulb Temperature Range Modifier Day Schedule Name
  ASHRAEClearSky;                         !- Solar Model Indicator

OS:SizingPeriod:DesignDay,
  {ac03595f-f864-466b-93b1-2095e1139544}, !- Handle
  Leesburg Executive April .4% Condns DB=>MCWB 1, !- Name
  32.8,                                   !- Maximum Dry-Bulb Temperature {C}
  12.5,                                   !- Daily Dry-Bulb Temperature Range {deltaC}
  99904,                                  !- Barometric Pressure {Pa}
  2.9,                                    !- Wind Speed {m/s}
  240,                                    !- Wind Direction {deg}
  ,                                       !- Sky Clearness
  No,                                     !- Rain Indicator
  No,                                     !- Snow Indicator
  21,                                     !- Day of Month
  4,                                      !- Month
  SummerDesignDay,                        !- Day Type
  No,                                     !- Daylight Saving Time Indicator
  Wetbulb,                                !- Humidity Condition Type
  ,                                       !- Humidity Condition Day Schedule Name
  19.6,                                   !- Wetbulb or DewPoint at Maximum Dry-Bulb {C}
  ,                                       !- Humidity Ratio at Maximum Dry-Bulb {kgWater/kgDryAir}
  ,                                       !- Enthalpy at Maximum Dry-Bulb {J/kg}
  DefaultMultipliers,                     !- Dry-Bulb Temperature Range Modifier Type
  ,                                       !- Dry-Bulb Temperature Range Modifier Day Schedule Name
  ASHRAETau,                              !- Solar Model Indicator
  ,                                       !- Beam Solar Day Schedule Name
  ,                                       !- Diffuse Solar Day Schedule Name
  0.389,                                  !- ASHRAE Clear Sky Optical Depth for Beam Irradiance {dimensionless}
  2.281;                                  !- ASHRAE Clear Sky Optical Depth for Diffuse Irradiance {dimensionless}

OS:SizingPeriod:DesignDay,
  {f9f3629b-6445-4e86-81f9-08f283faee8c}, !- Handle
  Leesburg Executive April .4% Condns WB=>MCDB 1, !- Name
  28.7,                                   !- Maximum Dry-Bulb Temperature {C}
  12.5,                                   !- Daily Dry-Bulb Temperature Range {deltaC}
  99904,                                  !- Barometric Pressure {Pa}
  2.9,                                    !- Wind Speed {m/s}
  240,                                    !- Wind Direction {deg}
  ,                                       !- Sky Clearness
  No,                                     !- Rain Indicator
  No,                                     !- Snow Indicator
  21,                                     !- Day of Month
  4,                                      !- Month
  SummerDesignDay,                        !- Day Type
  No,                                     !- Daylight Saving Time Indicator
  Wetbulb,                                !- Humidity Condition Type
  ,                                       !- Humidity Condition Day Schedule Name
  21.1,                                   !- Wetbulb or DewPoint at Maximum Dry-Bulb {C}
  ,                                       !- Humidity Ratio at Maximum Dry-Bulb {kgWater/kgDryAir}
  ,                                       !- Enthalpy at Maximum Dry-Bulb {J/kg}
  DefaultMultipliers,                     !- Dry-Bulb Temperature Range Modifier Type
  ,                                       !- Dry-Bulb Temperature Range Modifier Day Schedule Name
  ASHRAETau,                              !- Solar Model Indicator
  ,                                       !- Beam Solar Day Schedule Name
  ,                                       !- Diffuse Solar Day Schedule Name
  0.389,                                  !- ASHRAE Clear Sky Optical Depth for Beam Irradiance {dimensionless}
  2.281;                                  !- ASHRAE Clear Sky Optical Depth for Diffuse Irradiance {dimensionless}

OS:SizingPeriod:DesignDay,
  {3e3b7ce6-b149-4428-a567-7e2c6d64e40d}, !- Handle
  Leesburg Executive August .4% Condns DB=>MCWB 1, !- Name
  37.1,                                   !- Maximum Dry-Bulb Temperature {C}
  11.7,                                   !- Daily Dry-Bulb Temperature Range {deltaC}
  99904,                                  !- Barometric Pressure {Pa}
  2.9,                                    !- Wind Speed {m/s}
  240,                                    !- Wind Direction {deg}
  ,                                       !- Sky Clearness
  No,                                     !- Rain Indicator
  No,                                     !- Snow Indicator
  21,                                     !- Day of Month
  8,                                      !- Month
  SummerDesignDay,                        !- Day Type
  No,                                     !- Daylight Saving Time Indicator
  Wetbulb,                                !- Humidity Condition Type
  ,                                       !- Humidity Condition Day Schedule Name
  25.4,                                   !- Wetbulb or DewPoint at Maximum Dry-Bulb {C}
  ,                                       !- Humidity Ratio at Maximum Dry-Bulb {kgWater/kgDryAir}
  ,                                       !- Enthalpy at Maximum Dry-Bulb {J/kg}
  DefaultMultipliers,                     !- Dry-Bulb Temperature Range Modifier Type
  ,                                       !- Dry-Bulb Temperature Range Modifier Day Schedule Name
  ASHRAETau,                              !- Solar Model Indicator
  ,                                       !- Beam Solar Day Schedule Name
  ,                                       !- Diffuse Solar Day Schedule Name
  0.439,                                  !- ASHRAE Clear Sky Optical Depth for Beam Irradiance {dimensionless}
  2.186;                                  !- ASHRAE Clear Sky Optical Depth for Diffuse Irradiance {dimensionless}

OS:SizingPeriod:DesignDay,
  {f69e4296-33ad-40aa-93c2-7b3fae3e190b}, !- Handle
  Leesburg Executive August .4% Condns WB=>MCDB 1, !- Name
  33.6,                                   !- Maximum Dry-Bulb Temperature {C}
  11.7,                                   !- Daily Dry-Bulb Temperature Range {deltaC}
  99904,                                  !- Barometric Pressure {Pa}
  2.9,                                    !- Wind Speed {m/s}
  240,                                    !- Wind Direction {deg}
  ,                                       !- Sky Clearness
  No,                                     !- Rain Indicator
  No,                                     !- Snow Indicator
  21,                                     !- Day of Month
  8,                                      !- Month
  SummerDesignDay,                        !- Day Type
  No,                                     !- Daylight Saving Time Indicator
  Wetbulb,                                !- Humidity Condition Type
  ,                                       !- Humidity Condition Day Schedule Name
  27.4,                                   !- Wetbulb or DewPoint at Maximum Dry-Bulb {C}
  ,                                       !- Humidity Ratio at Maximum Dry-Bulb {kgWater/kgDryAir}
  ,                                       !- Enthalpy at Maximum Dry-Bulb {J/kg}
  DefaultMultipliers,                     !- Dry-Bulb Temperature Range Modifier Type
  ,                                       !- Dry-Bulb Temperature Range Modifier Day Schedule Name
  ASHRAETau,                              !- Solar Model Indicator
  ,                                       !- Beam Solar Day Schedule Name
  ,                                       !- Diffuse Solar Day Schedule Name
  0.439,                                  !- ASHRAE Clear Sky Optical Depth for Beam Irradiance {dimensionless}
  2.186;                                  !- ASHRAE Clear Sky Optical Depth for Diffuse Irradiance {dimensionless}

OS:SizingPeriod:DesignDay,
  {9c074413-b850-425d-9751-417a34616d35}, !- Handle
  Leesburg Executive December .4% Condns DB=>MCWB 1, !- Name
  21.3,                                   !- Maximum Dry-Bulb Temperature {C}
  9.1,                                    !- Daily Dry-Bulb Temperature Range {deltaC}
  99904,                                  !- Barometric Pressure {Pa}
  2.9,                                    !- Wind Speed {m/s}
  240,                                    !- Wind Direction {deg}
  ,                                       !- Sky Clearness
  No,                                     !- Rain Indicator
  No,                                     !- Snow Indicator
  21,                                     !- Day of Month
  12,                                     !- Month
  SummerDesignDay,                        !- Day Type
  No,                                     !- Daylight Saving Time Indicator
  Wetbulb,                                !- Humidity Condition Type
  ,                                       !- Humidity Condition Day Schedule Name
  15.4,                                   !- Wetbulb or DewPoint at Maximum Dry-Bulb {C}
  ,                                       !- Humidity Ratio at Maximum Dry-Bulb {kgWater/kgDryAir}
  ,                                       !- Enthalpy at Maximum Dry-Bulb {J/kg}
  DefaultMultipliers,                     !- Dry-Bulb Temperature Range Modifier Type
  ,                                       !- Dry-Bulb Temperature Range Modifier Day Schedule Name
  ASHRAETau,                              !- Solar Model Indicator
  ,                                       !- Beam Solar Day Schedule Name
  ,                                       !- Diffuse Solar Day Schedule Name
  0.305,                                  !- ASHRAE Clear Sky Optical Depth for Beam Irradiance {dimensionless}
  2.603;                                  !- ASHRAE Clear Sky Optical Depth for Diffuse Irradiance {dimensionless}

OS:SizingPeriod:DesignDay,
  {8ddac19a-2eef-4e97-abf8-169ca964ce9a}, !- Handle
  Leesburg Executive December .4% Condns WB=>MCDB 1, !- Name
  19.1,                                   !- Maximum Dry-Bulb Temperature {C}
  9.1,                                    !- Daily Dry-Bulb Temperature Range {deltaC}
  99904,                                  !- Barometric Pressure {Pa}
  2.9,                                    !- Wind Speed {m/s}
  240,                                    !- Wind Direction {deg}
  ,                                       !- Sky Clearness
  No,                                     !- Rain Indicator
  No,                                     !- Snow Indicator
  21,                                     !- Day of Month
  12,                                     !- Month
  SummerDesignDay,                        !- Day Type
  No,                                     !- Daylight Saving Time Indicator
  Wetbulb,                                !- Humidity Condition Type
  ,                                       !- Humidity Condition Day Schedule Name
  16.7,                                   !- Wetbulb or DewPoint at Maximum Dry-Bulb {C}
  ,                                       !- Humidity Ratio at Maximum Dry-Bulb {kgWater/kgDryAir}
  ,                                       !- Enthalpy at Maximum Dry-Bulb {J/kg}
  DefaultMultipliers,                     !- Dry-Bulb Temperature Range Modifier Type