
OS:Version,
  {316f4e4e-7222-4c33-b4d3-8b468d1c448b}, !- Handle
  3.4.0;                                  !- Version Identifier

OS:Facility,
  {1bc91f76-30b3-490e-a06e-35c5045c1269}; !- Handle

OS:Site,
  {01ac383b-d1ff-418d-9f9d-fc898c487342}, !- Handle
  Honolulu Intl_HI_USA,                   !- Name
  20.901944,                              !- Latitude {deg}
  -156.433056,                            !- Longitude {deg}
  -10,                                    !- Time Zone {hr}
  3.2,                                    !- Elevation {m}
  City;                                   !- Terrain

OS:SimulationControl,
  {8c2b1b51-c16d-42bb-be30-519f874e289e}, !- Handle
  ,                                       !- Do Zone Sizing Calculation
  ,                                       !- Do System Sizing Calculation
  ,                                       !- Do Plant Sizing Calculation
  No,                                     !- Run Simulation for Sizing Periods
  Yes,                                    !- Run Simulation for Weather File Run Periods
  ,                                       !- Loads Convergence Tolerance Value {W}
  ,                                       !- Temperature Convergence Tolerance Value {deltaC}
  ,                                       !- Solar Distribution
  ,                                       !- Maximum Number of Warmup Days
  ,                                       !- Minimum Number of Warmup Days
  No,                                     !- Do HVAC Sizing Simulation for Sizing Periods
  1;                                      !- Maximum Number of HVAC Sizing Simulation Passes

OS:Sizing:Parameters,
  {70efa9df-3ba8-4b3d-8965-8a5a54fa149d}, !- Handle
  1.25,                                   !- Heating Sizing Factor
  1.15;                                   !- Cooling Sizing Factor

OS:Timestep,
  {5d625af5-26ee-4baa-bf6d-352a5295fa20}, !- Handle
  4;                                      !- Number of Timesteps per Hour

OS:ShadowCalculation,
  {0b7edeb8-f081-43ab-aa2d-99083a03deea}, !- Handle
  PolygonClipping,                        !- Shading Calculation Method
  ,                                       !- Shading Calculation Update Frequency Method
  20,                                     !- Shading Calculation Update Frequency
  15000,                                  !- Maximum Figures in Shadow Overlap Calculations
  ,                                       !- Polygon Clipping Algorithm
  512,                                    !- Pixel Counting Resolution
  ,                                       !- Sky Diffuse Modeling Algorithm
  No,                                     !- Output External Shading Calculation Results
  No,                                     !- Disable Self-Shading Within Shading Zone Groups
  No;                                     !- Disable Self-Shading From Shading Zone Groups to Other Zones

OS:HeatBalanceAlgorithm,
  {e500b3e2-60fa-4f13-9e55-d95b98e2d89b}, !- Handle
  ConductionTransferFunction,             !- Algorithm
  200;                                    !- Surface Temperature Upper Limit {C}

OS:RunPeriod,
  {e2c28cea-da6a-4a75-be8b-f3acb4445b8f}, !- Handle
  Run Period 1,                           !- Name
  1,                                      !- Begin Month
  1,                                      !- Begin Day of Month
  12,                                     !- End Month
  31,                                     !- End Day of Month
  ,                                       !- Use Weather File Holidays and Special Days
  ,                                       !- Use Weather File Daylight Saving Period
  ,                                       !- Apply Weekend Holiday Rule
  ,                                       !- Use Weather File Rain Indicators
  ,                                       !- Use Weather File Snow Indicators
  ;                                       !- Number of Times Runperiod to be Repeated

OS:LifeCycleCost:Parameters,
  {09d00dd5-f17c-419f-8d07-6b32c157e91e}, !- Handle
  ,                                       !- Analysis Type
  ,                                       !- Discounting Convention
  ,                                       !- Inflation Approach
  ,                                       !- Real Discount Rate
  ,                                       !- Nominal Discount Rate
  ,                                       !- Inflation
  ,                                       !- Base Date Month
  ,                                       !- Base Date Year
  ,                                       !- Service Date Month
  ,                                       !- Service Date Year
  ;                                       !- Length of Study Period in Years

OS:WeatherFile,
  {c8e6c176-c38f-48ff-8b2a-c99f8335be1b}, !- Handle
  Honolulu Intl,                          !- City
  HI,                                     !- State Province Region
  USA,                                    !- Country
  customized weather file,                !- Data Source
  91182,                                  !- WMO Number
  20.901944,                              !- Latitude {deg}
  -156.433056,                            !- Longitude {deg}
  -10,                                    !- Time Zone {hr}
  3.2,                                    !- Elevation {m}
  /weather/G1500010.epw,                  !- Url
  226BE93E,                               !- Checksum
  ,                                       !- Start Date Actual Year
  Friday;                                 !- Start Day of Week

OS:Site:WaterMainsTemperature,
  {c424abe8-e2b2-4518-94f9-6e9e6bc3f4a3}, !- Handle
  Correlation,                            !- Calculation Method
  ,                                       !- Temperature Schedule Name
  24.6616666666667,                       !- Annual Average Outdoor Air Temperature {C}
  4.9;                                    !- Maximum Difference In Monthly Average Outdoor Air Temperatures {deltaC}

OS:SizingPeriod:DesignDay,
  {b7ce5976-3fd1-42c2-a059-67774971e100}, !- Handle
  Honolulu Intl Arpt Ann Clg .4% Condns DB=>MWB 1, !- Name
  32.2,                                   !- Maximum Dry-Bulb Temperature {C}
  7.1,                                    !- Daily Dry-Bulb Temperature Range {deltaC}
  101301,                                 !- Barometric Pressure {Pa}
  6.7,                                    !- Wind Speed {m/s}
  60,                                     !- Wind Direction {deg}
  ,                                       !- Sky Clearness
  No,                                     !- Rain Indicator
  No,                                     !- Snow Indicator
  21,                                     !- Day of Month
  8,                                      !- Month
  SummerDesignDay,                        !- Day Type
  No,                                     !- Daylight Saving Time Indicator
  Wetbulb,                                !- Humidity Condition Type
  ,                                       !- Humidity Condition Day Schedule Name
  23.3,                                   !- Wetbulb or DewPoint at Maximum Dry-Bulb {C}
  ,                                       !- Humidity Ratio at Maximum Dry-Bulb {kgWater/kgDryAir}
  ,                                       !- Enthalpy at Maximum Dry-Bulb {J/kg}
  DefaultMultipliers,                     !- Dry-Bulb Temperature Range Modifier Type
  ,                                       !- Dry-Bulb Temperature Range Modifier Day Schedule Name
  ASHRAETau,                              !- Solar Model Indicator
  ,                                       !- Beam Solar Day Schedule Name
  ,                                       !- Diffuse Solar Day Schedule Name
  0.382,                                  !- ASHRAE Clear Sky Optical Depth for Beam Irradiance {dimensionless}
  2.521;                                  !- ASHRAE Clear Sky Optical Depth for Diffuse Irradiance {dimensionless}

OS:SizingPeriod:DesignDay,
  {33963d94-6597-4e52-938d-3e43717c837e}, !- Handle
  Honolulu Intl Arpt Ann Clg .4% Condns WB=>MDB 1, !- Name
  29.3,                                   !- Maximum Dry-Bulb Temperature {C}
  7.1,                                    !- Daily Dry-Bulb Temperature Range {deltaC}
  101301,                                 !- Barometric Pressure {Pa}
  6.7,                                    !- Wind Speed {m/s}
  60,                                     !- Wind Direction {deg}
  ,                                       !- Sky Clearness
  No,                                     !- Rain Indicator
  No,                                     !- Snow Indicator
  21,                                     !- Day of Month
  8,                                      !- Month
  SummerDesignDay,                        !- Day Type
  No,                                     !- Daylight Saving Time Indicator
  Wetbulb,                                !- Humidity Condition Type
  ,                                       !- Humidity Condition Day Schedule Name
  25.1,                                   !- Wetbulb or DewPoint at Maximum Dry-Bulb {C}
  ,                                       !- Humidity Ratio at Maximum Dry-Bulb {kgWater/kgDryAir}
  ,                                       !- Enthalpy at Maximum Dry-Bulb {J/kg}
  DefaultMultipliers,                     !- Dry-Bulb Temperature Range Modifier Type
  ,                                       !- Dry-Bulb Temperature Range Modifier Day Schedule Name
  ASHRAETau,                              !- Solar Model Indicator
  ,                                       !- Beam Solar Day Schedule Name
  ,                                       !- Diffuse Solar Day Schedule Name
  0.382,                                  !- ASHRAE Clear Sky Optical Depth for Beam Irradiance {dimensionless}
  2.521;                                  !- ASHRAE Clear Sky Optical Depth for Diffuse Irradiance {dimensionless}

OS:SizingPeriod:DesignDay,
  {b8c8c33b-5d96-4dc2-b553-46be702d3679}, !- Handle
  Honolulu Intl Arpt Ann Clg 1% Condns DB=>MWB 1, !- Name
  31.7,                                   !- Maximum Dry-Bulb Temperature {C}
  7.1,                                    !- Daily Dry-Bulb Temperature Range {deltaC}
  101301,                                 !- Barometric Pressure {Pa}
  6.7,                                    !- Wind Speed {m/s}
  60,                                     !- Wind Direction {deg}
  ,                                       !- Sky Clearness
  No,                                     !- Rain Indicator
  No,                                     !- Snow Indicator
  21,                                     !- Day of Month
  8,                                      !- Month
  SummerDesignDay,                        !- Day Type
  No,                                     !- Daylight Saving Time Indicator
  Wetbulb,                                !- Humidity Condition Type
  ,                                       !- Humidity Condition Day Schedule Name
  23.1,                                   !- Wetbulb or DewPoint at Maximum Dry-Bulb {C}
  ,                                       !- Humidity Ratio at Maximum Dry-Bulb {kgWater/kgDryAir}
  ,                                       !- Enthalpy at Maximum Dry-Bulb {J/kg}
  DefaultMultipliers,                     !- Dry-Bulb Temperature Range Modifier Type
  ,                                       !- Dry-Bulb Temperature Range Modifier Day Schedule Name
  ASHRAETau,                              !- Solar Model Indicator
  ,                                       !- Beam Solar Day Schedule Name
  ,                                       !- Diffuse Solar Day Schedule Name
  0.382,                                  !- ASHRAE Clear Sky Optical Depth for Beam Irradiance {dimensionless}
  2.521;                                  !- ASHRAE Clear Sky Optical Depth for Diffuse Irradiance {dimensionless}

OS:SizingPeriod:DesignDay,
  {29fc494c-b5f9-491e-ad37-cd784293ae0e}, !- Handle
  Honolulu Intl Arpt Ann Clg 2% Condns DP=>MDB 1, !- Name
  26.8,                                   !- Maximum Dry-Bulb Temperature {C}
  7.1,                                    !- Daily Dry-Bulb Temperature Range {deltaC}
  101301,                                 !- Barometric Pressure {Pa}
  6.7,                                    !- Wind Speed {m/s}
  60,                                     !- Wind Direction {deg}
  ,                                       !- Sky Clearness
  No,                                     !- Rain Indicator
  No,                                     !- Snow Indicator
  21,                                     !- Day of Month
  8,                                      !- Month
  SummerDesignDay,                        !- Day Type
  No,                                     !- Daylight Saving Time Indicator
  Dewpoint,                               !- Humidity Condition Type
  ,                                       !- Humidity Condition Day Schedule Name
  22.7,                                   !- Wetbulb or DewPoint at Maximum Dry-Bulb {C}
  ,                                       !- Humidity Ratio at Maximum Dry-Bulb {kgWater/kgDryAir}
  ,                                       !- Enthalpy at Maximum Dry-Bulb {J/kg}
  DefaultMultipliers,                     !- Dry-Bulb Temperature Range Modifier Type
  ,                                       !- Dry-Bulb Temperature Range Modifier Day Schedule Name
  ASHRAETau,                              !- Solar Model Indicator
  ,                                       !- Beam Solar Day Schedule Name
  ,                                       !- Diffuse Solar Day Schedule Name
  0.382,                                  !- ASHRAE Clear Sky Optical Depth for Beam Irradiance {dimensionless}
  2.521;                                  !- ASHRAE Clear Sky Optical Depth for Diffuse Irradiance {dimensionless}

OS:SizingPeriod:DesignDay,
  {4fd7e90d-abd4-4f1d-a338-03e93668e6de}, !- Handle
  Honolulu Intl Arpt Ann Htg 99% Condns DB 1, !- Name
  17.4,                                   !- Maximum Dry-Bulb Temperature {C}
  0,                                      !- Daily Dry-Bulb Temperature Range {deltaC}
  101301,                                 !- Barometric Pressure {Pa}
  1.9,                                    !- Wind Speed {m/s}
  320,                                    !- Wind Direction {deg}
  0,                                      !- Sky Clearness
  No,                                     !- Rain Indicator
  No,                                     !- Snow Indicator
  21,                                     !- Day of Month
  2,                                      !- Month
  WinterDesignDay,                        !- Day Type
  No,                                     !- Daylight Saving Time Indicator
  Wetbulb,                                !- Humidity Condition Type
  ,                                       !- Humidity Condition Day Schedule Name
  17.4,                                   !- Wetbulb or DewPoint at Maximum Dry-Bulb {C}
  ,                                       !- Humidity Ratio at Maximum Dry-Bulb {kgWater/kgDryAir}
  ,                                       !- Enthalpy at Maximum Dry-Bulb {J/kg}
  DefaultMultipliers,                     !- Dry-Bulb Temperature Range Modifier Type
  ,                                       !- Dry-Bulb Temperature Range Modifier Day Schedule Name
  ASHRAEClearSky;                         !- Solar Model Indicator

OS:SizingPeriod:DesignDay,
  {200846a7-b4c0-40ff-bcd2-0991b094820a}, !- Handle
  Honolulu Intl Arpt Ann Htg 99.6% Condns DB 1, !- Name
  16.2,                                   !- Maximum Dry-Bulb Temperature {C}
  0,                                      !- Daily Dry-Bulb Temperature Range {deltaC}
  101301,                                 !- Barometric Pressure {Pa}
  1.9,                                    !- Wind Speed {m/s}
  320,                                    !- Wind Direction {deg}
  0,                                      !- Sky Clearness
  No,                                     !- Rain Indicator
  No,                                     !- Snow Indicator
  21,                                     !- Day of Month
  2,                                      !- Month
  WinterDesignDay,                        !- Day Type
  No,                                     !- Daylight Saving Time Indicator
  Wetbulb,                                !- Humidity Condition Type
  ,                                       !- Humidity Condition Day Schedule Name
  16.2,                                   !- Wetbulb or DewPoint at Maximum Dry-Bulb {C}
  ,                                       !- Humidity Ratio at Maximum Dry-Bulb {kgWater/kgDryAir}
  ,                                       !- Enthalpy at Maximum Dry-Bulb {J/kg}
  DefaultMultipliers,                     !- Dry-Bulb Temperature Range Modifier Type
  ,                                       !- Dry-Bulb Temperature Range Modifier Day Schedule Name
  ASHRAEClearSky;                         !- Solar Model Indicator

OS:SizingPeriod:DesignDay,
  {681ea7f9-c4cc-43a2-a64d-93e28c1c48e0}, !- Handle
  Honolulu Intl Arpt Ann Htg Wind 99% Condns WS=>MCDB 1, !- Name
  24.1,                                   !- Maximum Dry-Bulb Temperature {C}
  0,                                      !- Daily Dry-Bulb Temperature Range {deltaC}
  101301,                                 !- Barometric Pressure {Pa}
  9.9,                                    !- Wind Speed {m/s}
  320,                                    !- Wind Direction {deg}
  0,                                      !- Sky Clearness
  No,                                     !- Rain Indicator
  No,                                     !- Snow Indicator
  21,                                     !- Day of Month
  2,                                      !- Month
  WinterDesignDay,                        !- Day Type
  No,                                     !- Daylight Saving Time Indicator
  Wetbulb,                                !- Humidity Condition Type
  ,                                       !- Humidity Condition Day Schedule Name
  24.1,                                   !- Wetbulb or DewPoint at Maximum Dry-Bulb {C}
  ,                                       !- Humidity Ratio at Maximum Dry-Bulb {kgWater/kgDryAir}
  ,                                       !- Enthalpy at Maximum Dry-Bulb {J/kg}
  DefaultMultipliers,                     !- Dry-Bulb Temperature Range Modifier Type
  ,                                       !- Dry-Bulb Temperature Range Modifier Day Schedule Name
  ASHRAEClearSky;                         !- Solar Model Indicator

OS:ClimateZones,
  {c73be700-c1c4-4ab1-8cb6-215f17ce54df}, !- Handle
  ASHRAE,                                 !- Climate Zone Institution Name 1
  ANSI/ASHRAE Standard 169,               !- Climate Zone Document Name 1
  2006,                                   !- Climate Zone Document Year 1
  ASHRAE 169-2013-1A;                     !- Climate Zone Value 1

OS:Building,
  {f2b0e06a-038c-433d-b104-330ca6755247}, !- Handle
  ComStock DOE Ref Pre-1980|RetailStandalone, !- Name
  ,                                       !- Building Sector Type
  315,                                    !- North Axis {deg}
  ,                                       !- Nominal Floor to Floor Height {m}
  ,                                       !- Space Type Name
  {c56870f8-833c-458a-9b02-926792d59dd3}, !- Default Construction Set Name
  {9303c7cf-4699-40dd-99d2-feb07efea094}, !- Default Schedule Set Name
  ,                                       !- Standards Number of Stories
  ,                                       !- Standards Number of Above Ground Stories
  ,                                       !- Standards Template
  Retail;                                 !- Standards Building Type

OS:AdditionalProperties,
  {45214ea7-9844-4d88-8bdd-81764e647f27}, !- Handle
  {f2b0e06a-038c-433d-b104-330ca6755247}, !- Object Name
  grid_region,                            !- Feature Name 1
  String,                                 !- Feature Data Type 1
  HIMS,                                   !- Feature Value 1
  hvac_system_type,                       !- Feature Name 2
  String,                                 !- Feature Data Type 2
  PVAV with gas heat with electric reheat, !- Feature Value 2
  wall_as_constructed_template,           !- Feature Name 3
  String,                                 !- Feature Data Type 3
  ComStock DOE Ref Pre-1980,              !- Feature Value 3
  wall_template,                          !- Feature Name 4
  String,                                 !- Feature Data Type 4
  ComStock DOE Ref Pre-1980,              !- Feature Value 4
  roof_as_constructed_template,           !- Feature Name 5
  String,                                 !- Feature Data Type 5
  ComStock DOE Ref Pre-1980,              !- Feature Value 5
  roof_template,                          !- Feature Name 6
  String,                                 !- Feature Data Type 6
  ComStock DOE Ref Pre-1980,              !- Feature Value 6
  exterior_lighting_as_constructed_template, !- Feature Name 7
  String,                                 !- Feature Data Type 7
  ComStock DOE Ref Pre-1980,              !- Feature Value 7
  exterior_lighting_template,             !- Feature Name 8
  String,                                 !- Feature Data Type 8
  ComStock 90.1-2013,                     !- Feature Value 8
  interior_equipment_as_constructed_template, !- Feature Name 9
  String,                                 !- Feature Data Type 9
  ComStock DOE Ref Pre-1980,              !- Feature Value 9
  interior_equipment_template,            !- Feature Name 10
  String,                                 !- Feature Data Type 10
  ComStock DOE Ref 1980-2004,             !- Feature Value 10
  service_water_heating_as_constructed_template, !- Feature Name 11
  String,                                 !- Feature Data Type 11
  ComStock DOE Ref Pre-1980,              !- Feature Value 11
  service_water_heating_template,         !- Feature Name 12
  String,                                 !- Feature Data Type 12
  ComStock 90.1-2013,                     !- Feature Value 12
  hvac_as_constructed_template,           !- Feature Name 13
  String,                                 !- Feature Data Type 13
  ComStock DOE Ref Pre-1980,              !- Feature Value 13
  hvac_template,                          !- Feature Name 14
  String,                                 !- Feature Data Type 14
  ComStock DOE Ref Pre-1980;              !- Feature Value 14

OS:SpaceType,
  {878b4839-d1bd-4350-8dba-08fbca29effb}, !- Handle
  Retail Entry - ComStock DOE Ref Pre-1980, !- Name
  ,                                       !- Default Construction Set Name
  {cf5e3985-6222-4468-b0d7-f5c268acc385}, !- Default Schedule Set Name
  {90d2adfd-177b-4ccb-a541-f12e3ab2c87c}, !- Group Rendering Name
  {60e99efb-a1fa-4b26-9788-02308e152a27}, !- Design Specification Outdoor Air Object Name
  ,                                       !- Standards Template
  Retail,                                 !- Standards Building Type
  Entry;                                  !- Standards Space Type

OS:Rendering:Color,
  {90d2adfd-177b-4ccb-a541-f12e3ab2c87c}, !- Handle
  Retail Entry,                           !- Name
  169,                                    !- Rendering Red Value
  31,                                     !- Rendering Green Value
  31;                                     !- Rendering Blue Value

OS:SpaceType,
  {dac11652-1571-4995-a40f-35e9b15ff7ae}, !- Handle
  Retail Point_of_Sale - ComStock DOE Ref Pre-1980, !- Name
  ,                                       !- Default Construction Set Name
  {a011c1c1-4266-4892-901b-2d1ca20137a5}, !- Default Schedule Set Name
  {3c79103a-69bb-4906-81cc-bd42397bae35}, !- Group Rendering Name
  {9578c273-c8b1-4394-a7b1-5cebc9475488}, !- Design Specification Outdoor Air Object Name
  ,                                       !- Standards Template
  Retail,                                 !- Standards Building Type
  Point_of_Sale;                          !- Standards Space Type

OS:Rendering:Color,
  {3c79103a-69bb-4906-81cc-bd42397bae35}, !- Handle
  Retail Point_of_Sale,                   !- Name
  171,                                    !- Rendering Red Value
  222,                                    !- Rendering Green Value
  78;                                     !- Rendering Blue Value

OS:SpaceType,
  {a465899a-6f0b-4e2f-a814-1cf9111c493c}, !- Handle
  Retail Back_Space - ComStock DOE Ref Pre-1980, !- Name
  ,                                       !- Default Construction Set Name
  {386e45d1-9895-485f-af85-48165683fba9}, !- Default Schedule Set Name
  {dcdacd51-da62-4c76-bcb2-025b75354784}, !- Group Rendering Name
  {6f6220dc-b376-4da8-8cfc-a9e8b69a87d8}, !- Design Specification Outdoor Air Object Name
  ,                                       !- Standards Template
  Retail,                                 !- Standards Building Type
  Back_Space;                             !- Standards Space Type

OS:Rendering:Color,
  {dcdacd51-da62-4c76-bcb2-025b75354784}, !- Handle
  Retail Back_Space,                      !- Name
  120,                                    !- Rendering Red Value
  149,                                    !- Rendering Green Value
  230;                                    !- Rendering Blue Value

OS:SpaceType,
  {ddda7562-d833-4991-9cf7-97b13c3d3d76}, !- Handle
  Retail Retail - ComStock DOE Ref Pre-1980, !- Name
  ,                                       !- Default Construction Set Name
  {4675d0c4-630a-483d-b93b-a214fb57ac85}, !- Default Schedule Set Name
  {9def97c1-c59d-4166-9fff-35d0a8464dd3}, !- Group Rendering Name
  {483329bc-e6b6-453c-be27-2097fcc9d0fb}, !- Design Specification Outdoor Air Object Name
  ,                                       !- Standards Template
  Retail,                                 !- Standards Building Type
  Retail;                                 !- Standards Space Type

OS:Rendering:Color,
  {9def97c1-c59d-4166-9fff-35d0a8464dd3}, !- Handle
  Retail Retail,                          !- Name
  171,                                    !- Rendering Red Value
  222,                                    !- Rendering Green Value
  78;                                     !- Rendering Blue Value

OS:BuildingStory,
  {0ae719d6-7d09-48f9-8273-4bbe6e7a4f7d}, !- Handle
  Story Ground,                           !- Name
  0,                                      !- Nominal Z Coordinate {m}
  6.096,                                  !- Nominal Floor to Floor Height {m}
  ,                                       !- Default Construction Set Name
  ,                                       !- Default Schedule Set Name
  ;                                       !- Group Rendering Name

OS:Space,
  {bab8b3a3-c48d-4e26-b9c3-149c69b9b372}, !- Handle
  Retail Retail A end_a - Story Ground,   !- Name
  {ddda7562-d833-4991-9cf7-97b13c3d3d76}, !- Space Type Name
  ,                                       !- Default Construction Set Name
  ,                                       !- Default Schedule Set Name
  -0,                                     !- Direction of Relative North {deg}
  -41.7364588818937,                      !- X Origin {m}
  -20.8682294409468,                      !- Y Origin {m}
  0,                                      !- Z Origin {m}
  {0ae719d6-7d09-48f9-8273-4bbe6e7a4f7d}, !- Building Story Name
  {f2dd8077-dc83-477e-96da-fee79aeda41c}; !- Thermal Zone Name

OS:Surface,
  {feb97931-1460-4899-9c43-65f21b75a39b}, !- Handle
  Surface 1,                              !- Name
  Floor,                                  !- Surface Type
  {f4347732-6923-4aa3-9fa3-0031162a65c5}, !- Construction Name
  {bab8b3a3-c48d-4e26-b9c3-149c69b9b372}, !- Space Name
  GroundFCfactorMethod,                   !- Outside Boundary Condition
  ,                                       !- Outside Boundary Condition Object
  NoSun,                                  !- Sun Exposure
  NoWind,                                 !- Wind Exposure
  ,                                       !- View Factor to Ground
  ,                                       !- Number of Vertices
  -4.2632564145606e-14, 3.19744231092045e-14, 0, !- X,Y,Z Vertex 1 {m}
  -4.2632564145606e-14, 4.57200000000003, 0, !- X,Y,Z Vertex 2 {m}
  4.57199999999995, 4.57200000000003, 0,  !- X,Y,Z Vertex 3 {m}
  4.57199999999995, 3.19744231092045e-14, 0; !- X,Y,Z Vertex 4 {m}

OS:Surface,
  {b51483a4-13c9-4ead-89bb-b6b843ad0979}, !- Handle
  Surface 2,                              !- Name
  Wall,                                   !- Surface Type
  ,                                       !- Construction Name
  {bab8b3a3-c48d-4e26-b9c3-149c69b9b372}, !- Space Name
  Outdoors,                               !- Outside Boundary Condition
  ,                                       !- Outside Boundary Condition Object
  SunExposed,                             !- Sun Exposure
  WindExposed,                            !- Wind Exposure
  ,                                       !- View Factor to Ground
  ,                                       !- Number of Vertices
  -4.2632564145606e-14, 4.57200000000003, 6.096, !- X,Y,Z Vertex 1 {m}
  -4.2632564145606e-14, 4.57200000000003, 0, !- X,Y,Z Vertex 2 {m}
  -4.2632564145606e-14, 3.19744231092045e-14, 0, !- X,Y,Z Vertex 3 {m}
  -4.2632564145606e-14, 3.19744231092045e-14, 6.096; !- X,Y,Z Vertex 4 {m}

OS:Surface,
  {1793811a-4c22-4c6a-bdfd-18886125c0e2}, !- Handle
  Surface 3,                              !- Name
  Wall,                                   !- Surface Type
  ,                                       !- Construction Name
  {bab8b3a3-c48d-4e26-b9c3-149c69b9b372}, !- Space Name
  Surface,                                !- Outside Boundary Condition
  {98bf9e98-9b23-4fc3-b563-9193712b382f}, !- Outside Boundary Condition Object
  NoSun,                                  !- Sun Exposure