
OS:Version,
  {a847cfb1-b912-45c0-b8f7-432f74b46d9c}, !- Handle
  3.4.0;                                  !- Version Identifier

OS:Facility,
  {28cfa0ea-0607-45b4-9caa-4440bf01ca8e}; !- Handle

OS:Site,
  {30522960-68f3-4ad1-ae61-b8953f1ed570}, !- Handle
  Pompano Beach Airpar_FL_USA,            !- Name
  26.25,                                  !- Latitude {deg}
  -80.11,                                 !- Longitude {deg}
  -5,                                     !- Time Zone {hr}
  6,                                      !- Elevation {m}
  City;                                   !- Terrain

OS:SimulationControl,
  {48ac82cc-3722-49af-9af0-0b3cc99e505b}, !- Handle
  ,                                       !- Do Zone Sizing Calculation
  ,                                       !- Do System Sizing Calculation
  ,                                       !- Do Plant Sizing Calculation
  No,                                     !- Run Simulation for Sizing Periods
  Yes,                                    !- Run Simulation for Weather File Run Periods
  ,                                       !- Loads Convergence Tolerance Value {W}
  ,                                       !- Temperature Convergence Tolerance Value {deltaC}
  ,                                       !- Solar Distribution
  ,                                       !- Maximum Number of Warmup Days
  ,                                       !- Minimum Number of Warmup Days
  No,                                     !- Do HVAC Sizing Simulation for Sizing Periods
  1;                                      !- Maximum Number of HVAC Sizing Simulation Passes

OS:Sizing:Parameters,
  {2f1e0cd7-b8c2-40c7-b81c-3ee9b8f88ac2}, !- Handle
  1.25,                                   !- Heating Sizing Factor
  1.15;                                   !- Cooling Sizing Factor

OS:Timestep,
  {68f23429-7663-4fce-8007-6768648ce0b3}, !- Handle
  4;                                      !- Number of Timesteps per Hour

OS:ShadowCalculation,
  {e013dd8b-de8c-4545-8d6d-2cd372d48cda}, !- Handle
  PolygonClipping,                        !- Shading Calculation Method
  ,                                       !- Shading Calculation Update Frequency Method
  20,                                     !- Shading Calculation Update Frequency
  15000,                                  !- Maximum Figures in Shadow Overlap Calculations
  ,                                       !- Polygon Clipping Algorithm
  512,                                    !- Pixel Counting Resolution
  ,                                       !- Sky Diffuse Modeling Algorithm
  No,                                     !- Output External Shading Calculation Results
  No,                                     !- Disable Self-Shading Within Shading Zone Groups
  No;                                     !- Disable Self-Shading From Shading Zone Groups to Other Zones

OS:HeatBalanceAlgorithm,
  {567e74c3-b59b-4dae-9407-880dc343f1bc}, !- Handle
  ConductionTransferFunction,             !- Algorithm
  200;                                    !- Surface Temperature Upper Limit {C}

OS:RunPeriod,
  {8bc83401-a4c0-4fc4-8557-81c359108528}, !- Handle
  Run Period 1,                           !- Name
  1,                                      !- Begin Month
  1,                                      !- Begin Day of Month
  12,                                     !- End Month
  31,                                     !- End Day of Month
  ,                                       !- Use Weather File Holidays and Special Days
  ,                                       !- Use Weather File Daylight Saving Period
  ,                                       !- Apply Weekend Holiday Rule
  ,                                       !- Use Weather File Rain Indicators
  ,                                       !- Use Weather File Snow Indicators
  ;                                       !- Number of Times Runperiod to be Repeated

OS:LifeCycleCost:Parameters,
  {b8ec889f-71ef-4871-a5c9-f93c0a66ac10}, !- Handle
  ,                                       !- Analysis Type
  ,                                       !- Discounting Convention
  ,                                       !- Inflation Approach
  ,                                       !- Real Discount Rate
  ,                                       !- Nominal Discount Rate
  ,                                       !- Inflation
  ,                                       !- Base Date Month
  ,                                       !- Base Date Year
  ,                                       !- Service Date Month
  ,                                       !- Service Date Year
  ;                                       !- Length of Study Period in Years

OS:WeatherFile,
  {79e9f879-c3db-4205-bcfd-feaf798f9857}, !- Handle
  Pompano Beach Airpar,                   !- City
  FL,                                     !- State Province Region
  USA,                                    !- Country
  customized weather file,                !- Data Source
  722049,                                 !- WMO Number
  26.25,                                  !- Latitude {deg}
  -80.11,                                 !- Longitude {deg}
  -5,                                     !- Time Zone {hr}
  6,                                      !- Elevation {m}
  /weather/G1200110.epw,                  !- Url
  226BE93E,                               !- Checksum
  ,                                       !- Start Date Actual Year
  Friday;                                 !- Start Day of Week

OS:Site:WaterMainsTemperature,
  {67a2c19c-cf36-4aff-ae09-35b7dd1a735a}, !- Handle
  Correlation,                            !- Calculation Method
  ,                                       !- Temperature Schedule Name
  25.4875,                                !- Annual Average Outdoor Air Temperature {C}
  9.75;                                   !- Maximum Difference In Monthly Average Outdoor Air Temperatures {deltaC}

OS:SizingPeriod:DesignDay,
  {fe45db2c-c7b0-430c-924e-8f6f94a9d4d0}, !- Handle
  Pompano Beach Airpar Ann Clg .4% Condns DB=>MWB 1, !- Name
  32.5,                                   !- Maximum Dry-Bulb Temperature {C}
  5.9,                                    !- Daily Dry-Bulb Temperature Range {deltaC}
  101253,                                 !- Barometric Pressure {Pa}
  5.4,                                    !- Wind Speed {m/s}
  140,                                    !- Wind Direction {deg}
  ,                                       !- Sky Clearness
  No,                                     !- Rain Indicator
  No,                                     !- Snow Indicator
  21,                                     !- Day of Month
  8,                                      !- Month
  SummerDesignDay,                        !- Day Type
  No,                                     !- Daylight Saving Time Indicator
  Wetbulb,                                !- Humidity Condition Type
  ,                                       !- Humidity Condition Day Schedule Name
  25.5,                                   !- Wetbulb or DewPoint at Maximum Dry-Bulb {C}
  ,                                       !- Humidity Ratio at Maximum Dry-Bulb {kgWater/kgDryAir}
  ,                                       !- Enthalpy at Maximum Dry-Bulb {J/kg}
  DefaultMultipliers,                     !- Dry-Bulb Temperature Range Modifier Type
  ,                                       !- Dry-Bulb Temperature Range Modifier Day Schedule Name
  ASHRAETau,                              !- Solar Model Indicator
  ,                                       !- Beam Solar Day Schedule Name
  ,                                       !- Diffuse Solar Day Schedule Name
  0.412,                                  !- ASHRAE Clear Sky Optical Depth for Beam Irradiance {dimensionless}
  2.417;                                  !- ASHRAE Clear Sky Optical Depth for Diffuse Irradiance {dimensionless}

OS:SizingPeriod:DesignDay,
  {8f8321ac-e675-4730-be37-ce8c5a236e73}, !- Handle
  Pompano Beach Airpar Ann Clg .4% Condns WB=>MDB 1, !- Name
  30.4,                                   !- Maximum Dry-Bulb Temperature {C}
  5.9,                                    !- Daily Dry-Bulb Temperature Range {deltaC}
  101253,                                 !- Barometric Pressure {Pa}
  5.4,                                    !- Wind Speed {m/s}
  140,                                    !- Wind Direction {deg}
  ,                                       !- Sky Clearness
  No,                                     !- Rain Indicator
  No,                                     !- Snow Indicator
  21,                                     !- Day of Month
  8,                                      !- Month
  SummerDesignDay,                        !- Day Type
  No,                                     !- Daylight Saving Time Indicator
  Wetbulb,                                !- Humidity Condition Type
  ,                                       !- Humidity Condition Day Schedule Name
  27.2,                                   !- Wetbulb or DewPoint at Maximum Dry-Bulb {C}
  ,                                       !- Humidity Ratio at Maximum Dry-Bulb {kgWater/kgDryAir}
  ,                                       !- Enthalpy at Maximum Dry-Bulb {J/kg}
  DefaultMultipliers,                     !- Dry-Bulb Temperature Range Modifier Type
  ,                                       !- Dry-Bulb Temperature Range Modifier Day Schedule Name
  ASHRAETau,                              !- Solar Model Indicator
  ,                                       !- Beam Solar Day Schedule Name
  ,                                       !- Diffuse Solar Day Schedule Name
  0.412,                                  !- ASHRAE Clear Sky Optical Depth for Beam Irradiance {dimensionless}
  2.417;                                  !- ASHRAE Clear Sky Optical Depth for Diffuse Irradiance {dimensionless}

OS:SizingPeriod:DesignDay,
  {f7b8144b-94f7-4257-b7aa-15534264ef9e}, !- Handle
  Pompano Beach Airpar Ann Clg 1% Condns DB=>MWB 1, !- Name
  32.3,                                   !- Maximum Dry-Bulb Temperature {C}
  5.9,                                    !- Daily Dry-Bulb Temperature Range {deltaC}
  101253,                                 !- Barometric Pressure {Pa}
  5.4,                                    !- Wind Speed {m/s}
  140,                                    !- Wind Direction {deg}
  ,                                       !- Sky Clearness
  No,                                     !- Rain Indicator
  No,                                     !- Snow Indicator
  21,                                     !- Day of Month
  8,                                      !- Month
  SummerDesignDay,                        !- Day Type
  No,                                     !- Daylight Saving Time Indicator
  Wetbulb,                                !- Humidity Condition Type
  ,                                       !- Humidity Condition Day Schedule Name
  25.6,                                   !- Wetbulb or DewPoint at Maximum Dry-Bulb {C}
  ,                                       !- Humidity Ratio at Maximum Dry-Bulb {kgWater/kgDryAir}
  ,                                       !- Enthalpy at Maximum Dry-Bulb {J/kg}
  DefaultMultipliers,                     !- Dry-Bulb Temperature Range Modifier Type
  ,                                       !- Dry-Bulb Temperature Range Modifier Day Schedule Name
  ASHRAETau,                              !- Solar Model Indicator
  ,                                       !- Beam Solar Day Schedule Name
  ,                                       !- Diffuse Solar Day Schedule Name
  0.412,                                  !- ASHRAE Clear Sky Optical Depth for Beam Irradiance {dimensionless}
  2.417;                                  !- ASHRAE Clear Sky Optical Depth for Diffuse Irradiance {dimensionless}

OS:SizingPeriod:DesignDay,
  {ecc0d322-6877-412e-9e9f-20524ee66e91}, !- Handle
  Pompano Beach Airpar Ann Clg 2% Condns DP=>MDB 1, !- Name
  28.6,                                   !- Maximum Dry-Bulb Temperature {C}
  5.9,                                    !- Daily Dry-Bulb Temperature Range {deltaC}
  101253,                                 !- Barometric Pressure {Pa}
  5.4,                                    !- Wind Speed {m/s}
  140,                                    !- Wind Direction {deg}
  ,                                       !- Sky Clearness
  No,                                     !- Rain Indicator
  No,                                     !- Snow Indicator
  21,                                     !- Day of Month
  8,                                      !- Month
  SummerDesignDay,                        !- Day Type
  No,                                     !- Daylight Saving Time Indicator
  Dewpoint,                               !- Humidity Condition Type
  ,                                       !- Humidity Condition Day Schedule Name
  25.2,                                   !- Wetbulb or DewPoint at Maximum Dry-Bulb {C}
  ,                                       !- Humidity Ratio at Maximum Dry-Bulb {kgWater/kgDryAir}
  ,                                       !- Enthalpy at Maximum Dry-Bulb {J/kg}
  DefaultMultipliers,                     !- Dry-Bulb Temperature Range Modifier Type
  ,                                       !- Dry-Bulb Temperature Range Modifier Day Schedule Name
  ASHRAETau,                              !- Solar Model Indicator
  ,                                       !- Beam Solar Day Schedule Name
  ,                                       !- Diffuse Solar Day Schedule Name
  0.412,                                  !- ASHRAE Clear Sky Optical Depth for Beam Irradiance {dimensionless}
  2.417;                                  !- ASHRAE Clear Sky Optical Depth for Diffuse Irradiance {dimensionless}

OS:SizingPeriod:DesignDay,
  {7f386f00-bd78-4c87-8756-e3aa2cbb19e1}, !- Handle
  Pompano Beach Airpar Ann Htg 99% Condns DB 1, !- Name
  9.1,                                    !- Maximum Dry-Bulb Temperature {C}
  0,                                      !- Daily Dry-Bulb Temperature Range {deltaC}
  101253,                                 !- Barometric Pressure {Pa}
  4.3,                                    !- Wind Speed {m/s}
  330,                                    !- Wind Direction {deg}
  0,                                      !- Sky Clearness
  No,                                     !- Rain Indicator
  No,                                     !- Snow Indicator
  21,                                     !- Day of Month
  1,                                      !- Month
  WinterDesignDay,                        !- Day Type
  No,                                     !- Daylight Saving Time Indicator
  Wetbulb,                                !- Humidity Condition Type
  ,                                       !- Humidity Condition Day Schedule Name
  9.1,                                    !- Wetbulb or DewPoint at Maximum Dry-Bulb {C}
  ,                                       !- Humidity Ratio at Maximum Dry-Bulb {kgWater/kgDryAir}
  ,                                       !- Enthalpy at Maximum Dry-Bulb {J/kg}
  DefaultMultipliers,                     !- Dry-Bulb Temperature Range Modifier Type
  ,                                       !- Dry-Bulb Temperature Range Modifier Day Schedule Name
  ASHRAEClearSky;                         !- Solar Model Indicator

OS:SizingPeriod:DesignDay,
  {d2f09503-2cd1-49e9-aac7-feb706641992}, !- Handle
  Pompano Beach Airpar Ann Htg 99.6% Condns DB 1, !- Name
  7.4,                                    !- Maximum Dry-Bulb Temperature {C}
  0,                                      !- Daily Dry-Bulb Temperature Range {deltaC}
  101253,                                 !- Barometric Pressure {Pa}
  4.3,                                    !- Wind Speed {m/s}
  330,                                    !- Wind Direction {deg}
  0,                                      !- Sky Clearness
  No,                                     !- Rain Indicator
  No,                                     !- Snow Indicator
  21,                                     !- Day of Month
  1,                                      !- Month
  WinterDesignDay,                        !- Day Type
  No,                                     !- Daylight Saving Time Indicator
  Wetbulb,                                !- Humidity Condition Type
  ,                                       !- Humidity Condition Day Schedule Name
  7.4,                                    !- Wetbulb or DewPoint at Maximum Dry-Bulb {C}
  ,                                       !- Humidity Ratio at Maximum Dry-Bulb {kgWater/kgDryAir}
  ,                                       !- Enthalpy at Maximum Dry-Bulb {J/kg}
  DefaultMultipliers,                     !- Dry-Bulb Temperature Range Modifier Type
  ,                                       !- Dry-Bulb Temperature Range Modifier Day Schedule Name
  ASHRAEClearSky;                         !- Solar Model Indicator

OS:SizingPeriod:DesignDay,
  {2af9bbfd-faa2-4507-9f87-fe7ebcc2a275}, !- Handle
  Pompano Beach Airpar Ann Htg Wind 99% Condns WS=>MCDB 1, !- Name
  20.3,                                   !- Maximum Dry-Bulb Temperature {C}
  0,                                      !- Daily Dry-Bulb Temperature Range {deltaC}
  101253,                                 !- Barometric Pressure {Pa}
  9.9,                                    !- Wind Speed {m/s}
  330,                                    !- Wind Direction {deg}
  0,                                      !- Sky Clearness
  No,                                     !- Rain Indicator
  No,                                     !- Snow Indicator
  21,                                     !- Day of Month
  1,                                      !- Month
  WinterDesignDay,                        !- Day Type
  No,                                     !- Daylight Saving Time Indicator
  Wetbulb,                                !- Humidity Condition Type
  ,                                       !- Humidity Condition Day Schedule Name
  20.3,                                   !- Wetbulb or DewPoint at Maximum Dry-Bulb {C}
  ,                                       !- Humidity Ratio at Maximum Dry-Bulb {kgWater/kgDryAir}
  ,                                       !- Enthalpy at Maximum Dry-Bulb {J/kg}
  DefaultMultipliers,                     !- Dry-Bulb Temperature Range Modifier Type
  ,                                       !- Dry-Bulb Temperature Range Modifier Day Schedule Name
  ASHRAEClearSky;                         !- Solar Model Indicator

OS:SizingPeriod:DesignDay,
  {b3f92102-5347-4383-9149-5c10cbfe437b}, !- Handle
  Pompano Beach Airpar April .4% Condns DB=>MCWB 1, !- Name
  32,                                     !- Maximum Dry-Bulb Temperature {C}
  6.9,                                    !- Daily Dry-Bulb Temperature Range {deltaC}
  101253,                                 !- Barometric Pressure {Pa}
  5.4,                                    !- Wind Speed {m/s}
  140,                                    !- Wind Direction {deg}
  ,                                       !- Sky Clearness
  No,                                     !- Rain Indicator
  No,                                     !- Snow Indicator
  21,                                     !- Day of Month
  4,                                      !- Month
  SummerDesignDay,                        !- Day Type
  No,                                     !- Daylight Saving Time Indicator
  Wetbulb,                                !- Humidity Condition Type
  ,                                       !- Humidity Condition Day Schedule Name
  22.6,                                   !- Wetbulb or DewPoint at Maximum Dry-Bulb {C}
  ,                                       !- Humidity Ratio at Maximum Dry-Bulb {kgWater/kgDryAir}
  ,                                       !- Enthalpy at Maximum Dry-Bulb {J/kg}
  DefaultMultipliers,                     !- Dry-Bulb Temperature Range Modifier Type
  ,                                       !- Dry-Bulb Temperature Range Modifier Day Schedule Name
  ASHRAETau,                              !- Solar Model Indicator
  ,                                       !- Beam Solar Day Schedule Name
  ,                                       !- Diffuse Solar Day Schedule Name
  0.376,                                  !- ASHRAE Clear Sky Optical Depth for Beam Irradiance {dimensionless}
  2.458;                                  !- ASHRAE Clear Sky Optical Depth for Diffuse Irradiance {dimensionless}

OS:SizingPeriod:DesignDay,
  {88c42760-62bd-4a97-b433-8b7787f89794}, !- Handle
  Pompano Beach Airpar April .4% Condns WB=>MCDB 1, !- Name
  27.9,                                   !- Maximum Dry-Bulb Temperature {C}
  6.9,                                    !- Daily Dry-Bulb Temperature Range {deltaC}
  101253,                                 !- Barometric Pressure {Pa}
  5.4,                                    !- Wind Speed {m/s}
  140,                                    !- Wind Direction {deg}
  ,                                       !- Sky Clearness
  No,                                     !- Rain Indicator
  No,                                     !- Snow Indicator
  21,                                     !- Day of Month
  4,                                      !- Month
  SummerDesignDay,                        !- Day Type
  No,                                     !- Daylight Saving Time Indicator
  Wetbulb,                                !- Humidity Condition Type
  ,                                       !- Humidity Condition Day Schedule Name
  24.3,                                   !- Wetbulb or DewPoint at Maximum Dry-Bulb {C}
  ,                                       !- Humidity Ratio at Maximum Dry-Bulb {kgWater/kgDryAir}
  ,                                       !- Enthalpy at Maximum Dry-Bulb {J/kg}
  DefaultMultipliers,                     !- Dry-Bulb Temperature Range Modifier Type
  ,                                       !- Dry-Bulb Temperature Range Modifier Day Schedule Name
  ASHRAETau,                              !- Solar Model Indicator
  ,                                       !- Beam Solar Day Schedule Name
  ,                                       !- Diffuse Solar Day Schedule Name
  0.376,                                  !- ASHRAE Clear Sky Optical Depth for Beam Irradiance {dimensionless}
  2.458;                                  !- ASHRAE Clear Sky Optical Depth for Diffuse Irradiance {dimensionless}

OS:SizingPeriod:DesignDay,
  {79d07da6-6c97-4d79-b10f-c54a33244ddd}, !- Handle
  Pompano Beach Airpar August .4% Condns DB=>MCWB 1, !- Name
  33,                                     !- Maximum Dry-Bulb Temperature {C}
  5.9,                                    !- Daily Dry-Bulb Temperature Range {deltaC}
  101253,                                 !- Barometric Pressure {Pa}
  5.4,                                    !- Wind Speed {m/s}
  140,                                    !- Wind Direction {deg}
  ,                                       !- Sky Clearness
  No,                                     !- Rain Indicator
  No,                                     !- Snow Indicator
  21,                                     !- Day of Month
  8,                                      !- Month
  SummerDesignDay,                        !- Day Type
  No,                                     !- Daylight Saving Time Indicator
  Wetbulb,                                !- Humidity Condition Type
  ,                                       !- Humidity Condition Day Schedule Name
  25.7,                                   !- Wetbulb or DewPoint at Maximum Dry-Bulb {C}
  ,                                       !- Humidity Ratio at Maximum Dry-Bulb {kgWater/kgDryAir}
  ,                                       !- Enthalpy at Maximum Dry-Bulb {J/kg}
  DefaultMultipliers,                     !- Dry-Bulb Temperature Range Modifier Type
  ,                                       !- Dry-Bulb Temperature Range Modifier Day Schedule Name
  ASHRAETau,                              !- Solar Model Indicator
  ,                                       !- Beam Solar Day Schedule Name
  ,                                       !- Diffuse Solar Day Schedule Name
  0.412,                                  !- ASHRAE Clear Sky Optical Depth for Beam Irradiance {dimensionless}
  2.417;                                  !- ASHRAE Clear Sky Optical Depth for Diffuse Irradiance {dimensionless}

OS:SizingPeriod:DesignDay,
  {35e339da-9140-4077-9097-8f75cfdbc8ad}, !- Handle
  Pompano Beach Airpar August .4% Condns WB=>MCDB 1, !- Name
  30.9,                                   !- Maximum Dry-Bulb Temperature {C}
  5.9,                                    !- Daily Dry-Bulb Temperature Range {deltaC}
  101253,                                 !- Barometric Pressure {Pa}
  5.4,                                    !- Wind Speed {m/s}
  140,                                    !- Wind Direction {deg}
  ,                                       !- Sky Clearness
  No,                                     !- Rain Indicator
  No,                                     !- Snow Indicator
  21,                                     !- Day of Month
  8,                                      !- Month
  SummerDesignDay,                        !- Day Type
  No,                                     !- Daylight Saving Time Indicator
  Wetbulb,                                !- Humidity Condition Type
  ,                                       !- Humidity Condition Day Schedule Name
  27.5,                                   !- Wetbulb or DewPoint at Maximum Dry-Bulb {C}
  ,                                       !- Humidity Ratio at Maximum Dry-Bulb {kgWater/kgDryAir}
  ,                                       !- Enthalpy at Maximum Dry-Bulb {J/kg}
  DefaultMultipliers,                     !- Dry-Bulb Temperature Range Modifier Type
  ,                                       !- Dry-Bulb Temperature Range Modifier Day Schedule Name
  ASHRAETau,                              !- Solar Model Indicator
  ,                                       !- Beam Solar Day Schedule Name
  ,                                       !- Diffuse Solar Day Schedule Name
  0.412,                                  !- ASHRAE Clear Sky Optical Depth for Beam Irradiance {dimensionless}
  2.417;                                  !- ASHRAE Clear Sky Optical Depth for Diffuse Irradiance {dimensionless}

OS:SizingPeriod:DesignDay,
  {954bfa59-8054-4f06-b89a-99ae6df23bb4}, !- Handle
  Pompano Beach Airpar December .4% Condns DB=>MCWB 1, !- Name
  27.8,                                   !- Maximum Dry-Bulb Temperature {C}
  7.1,                                    !- Daily Dry-Bulb Temperature Range {deltaC}
  101253,                                 !- Barometric Pressure {Pa}
  5.4,                                    !- Wind Speed {m/s}
  140,                                    !- Wind Direction {deg}
  ,                                       !- Sky Clearness
  No,                                     !- Rain Indicator
  No,                                     !- Snow Indicator
  21,                                     !- Day of Month
  12,                                     !- Month
  SummerDesignDay,                        !- Day Type
  No,                                     !- Daylight Saving Time Indicator
  Wetbulb,                                !- Humidity Condition Type
  ,                                       !- Humidity Condition Day Schedule Name
  22.6,                                   !- Wetbulb or DewPoint at Maximum Dry-Bulb {C}
  ,                                       !- Humidity Ratio at Maximum Dry-Bulb {kgWater/kgDryAir}
  ,                                       !- Enthalpy at Maximum Dry-Bulb {J/kg}
  DefaultMultipliers,                     !- Dry-Bulb Temperature Range Modifier Type
  ,                                       !- Dry-Bulb Temperature Range Modifier Day Schedule Name
  ASHRAETau,                              !- Solar Model Indicator
  ,                                       !- Beam Solar Day Schedule Name
  ,                                       !- Diffuse Solar Day Schedule Name
  0.379,                                  !- ASHRAE Clear Sky Optical Depth for Beam Irradiance {dimensionless}
  2.651;                                  !- ASHRAE Clear Sky Optical Depth for Diffuse Irradiance {dimensionless}

OS:SizingPeriod:DesignDay,
  {a7178e5b-98f2-4aaf-bf38-6c5d1426618a}, !- Handle
  Pompano Beach Airpar December .4% Condns WB=>MCDB 1, !- Name
  26.4,                                   !- Maximum Dry-Bulb Temperature {C}
  7.1,                                    !- Daily Dry-Bulb Temperature Range {deltaC}
  101253,                                 !- Barometric Pressure {Pa}
  5.4,                                    !- Wind Speed {m/s}
  140,                                    !- Wind Direction {deg}
  ,                                       !- Sky Clearness
  No,                                     !- Rain Indicator
  No,                                     !- Snow Indicator
  21,                                     !- Day of Month
  12,                                     !- Month
  SummerDesignDay,                        !- Day Type
  No,                                     !- Daylight Saving Time Indicator
  Wetbulb,                                !- Humidity Condition Type
  ,                                       !- Humidity Condition Day Schedule Name
  23.9,                                   !- Wetbulb or DewPoint at Maximum Dry-Bulb {C}
  ,                                       !- Humidity Ratio at Maximum Dry-Bulb {kgWater/kgDryAir}
  ,                                       !- Enthalpy at Maximum Dry-Bulb {J/kg}
  DefaultMultipliers,                     !- Dry-Bulb Temperature Range Modifier Type