
OS:Version,
  {f8776a0f-5541-4151-9960-15f291c609b8}, !- Handle
  3.7.0;                                  !- Version Identifier

OS:Site,
  {66f66bf6-d70d-4376-b0b4-cef16db67403}, !- Handle
  Fairbanks Intl Arpt_AK_USA,             !- Name
  64.82,                                  !- Latitude {deg}
  -147.85,                                !- Longitude {deg}
  -9,                                     !- Time Zone {hr}
  133,                                    !- Elevation {m}
  ;                                       !- Terrain

OS:YearDescription,
  {cba0ee14-b552-4a1d-bef0-f1d7aa948cc2}, !- Handle
  ,                                       !- Calendar Year
  Sunday,                                 !- Day of Week for Start Day
  ;                                       !- Is Leap Year

OS:ClimateZones,
  {06b5afae-2f45-4d4e-b859-4e4bb21e6aa6}, !- Handle
  ASHRAE,                                 !- Climate Zone Institution Name 1
  ANSI/ASHRAE Standard 169,               !- Climate Zone Document Name 1
  2006,                                   !- Climate Zone Document Year 1
  ,                                       !- Climate Zone Value 1
  CEC,                                    !- Climate Zone Institution Name 2
  California Climate Zone Descriptions,   !- Climate Zone Document Name 2
  1995,                                   !- Climate Zone Document Year 2
  ,                                       !- Climate Zone Value 2
  ASHRAE,                                 !- Climate Zone Institution Name 3
  ANSI/ASHRAE Standard 169,               !- Climate Zone Document Name 3
  2013,                                   !- Climate Zone Document Year 3
  8A;                                     !- Climate Zone Value 3

OS:Facility,
  {0b08c971-f447-4f6c-aa56-aa1f54ca385d}; !- Handle

OS:SimulationControl,
  {3939f9ea-136b-40bd-9c17-17a4cdf7f86f}, !- Handle
  ,                                       !- Do Zone Sizing Calculation
  ,                                       !- Do System Sizing Calculation
  ,                                       !- Do Plant Sizing Calculation
  No,                                     !- Run Simulation for Sizing Periods
  Yes,                                    !- Run Simulation for Weather File Run Periods
  ,                                       !- Loads Convergence Tolerance Value {W}
  ,                                       !- Temperature Convergence Tolerance Value {deltaC}
  ,                                       !- Solar Distribution
  ,                                       !- Maximum Number of Warmup Days
  ,                                       !- Minimum Number of Warmup Days
  No,                                     !- Do HVAC Sizing Simulation for Sizing Periods
  1;                                      !- Maximum Number of HVAC Sizing Simulation Passes

OS:Sizing:Parameters,
  {08fcb87a-38bb-49cc-8653-f81ff156e091}, !- Handle
  1.25,                                   !- Heating Sizing Factor
  1.15;                                   !- Cooling Sizing Factor

OS:Timestep,
  {402f30ae-df91-4f8e-be79-2f653a565b84}, !- Handle
  6;                                      !- Number of Timesteps per Hour

OS:ShadowCalculation,
  {289782dd-88d1-4d24-a8fe-dfadd0526bef}, !- Handle
  PolygonClipping,                        !- Shading Calculation Method
  ,                                       !- Shading Calculation Update Frequency Method
  20,                                     !- Shading Calculation Update Frequency
  15000,                                  !- Maximum Figures in Shadow Overlap Calculations
  ,                                       !- Polygon Clipping Algorithm
  512,                                    !- Pixel Counting Resolution
  ,                                       !- Sky Diffuse Modeling Algorithm
  No,                                     !- Output External Shading Calculation Results
  No,                                     !- Disable Self-Shading Within Shading Zone Groups
  No;                                     !- Disable Self-Shading From Shading Zone Groups to Other Zones

OS:HeatBalanceAlgorithm,
  {159afd01-5c4e-464c-ab21-0200b23a11cc}, !- Handle
  ConductionTransferFunction,             !- Algorithm
  200;                                    !- Surface Temperature Upper Limit {C}

OS:RunPeriod,
  {1304354e-410a-467d-bf9a-430f1af5b947}, !- Handle
  Run Period 1,                           !- Name
  1,                                      !- Begin Month
  1,                                      !- Begin Day of Month
  12,                                     !- End Month
  31,                                     !- End Day of Month
  ,                                       !- Use Weather File Holidays and Special Days
  ,                                       !- Use Weather File Daylight Saving Period
  ,                                       !- Apply Weekend Holiday Rule
  ,                                       !- Use Weather File Rain Indicators
  ,                                       !- Use Weather File Snow Indicators
  ;                                       !- Number of Times Runperiod to be Repeated

OS:LifeCycleCost:Parameters,
  {f0f374b3-c5e3-42c1-8c36-1c5f648a4140}, !- Handle
  ,                                       !- Analysis Type
  ,                                       !- Discounting Convention
  ,                                       !- Inflation Approach
  ,                                       !- Real Discount Rate
  ,                                       !- Nominal Discount Rate
  ,                                       !- Inflation
  ,                                       !- Base Date Month
  ,                                       !- Base Date Year
  ,                                       !- Service Date Month
  ,                                       !- Service Date Year
  ;                                       !- Length of Study Period in Years

OS:WeatherFile,
  {19564584-dae6-4954-9ca4-f4767f863123}, !- Handle
  Fairbanks Intl Arpt,                    !- City
  AK,                                     !- State Province Region
  USA,                                    !- Country
  TMY3,                                   !- Data Source
  702610,                                 !- WMO Number
  64.82,                                  !- Latitude {deg}
  -147.85,                                !- Longitude {deg}
  -9,                                     !- Time Zone {hr}
  133,                                    !- Elevation {m}
  C:/Users/jkim4/Documents/GitHub/openstudio-bem-to-surrogate-gem/spec/files/weather/USA_AK_Fairbanks.Intl.AP.702610_TMY3.epw, !- Url
  288AE598,                               !- Checksum
  2018,                                   !- Start Date Actual Year
  Sunday;                                 !- Start Day of Week

OS:RadianceParameters,
  {86880d74-a5bf-4936-8f59-ac74cc29e590}, !- Handle
  1,                                      !- Accumulated Rays per Record
  0,                                      !- Direct Threshold
  1,                                      !- Direct Certainty
  1,                                      !- Direct Jitter
  1,                                      !- Direct Pretest
  6,                                      !- Ambient Bounces VMX
  2,                                      !- Ambient Bounces DMX
  4050,                                   !- Ambient Divisions VMX
  512,                                    !- Ambient Divisions DMX
  256,                                    !- Ambient Supersamples
  0.001,                                  !- Limit Weight VMX
  0.001,                                  !- Limit Weight DMX
  500,                                    !- Klems Sampling Density
  146;                                    !- Sky Discretization Resolution

OS:ProgramControl,
  {a58e347f-5561-4729-98c8-118fa0914c66}; !- Handle

OS:OutputControl:ReportingTolerances,
  {926293c2-bfb2-4ebb-8213-3fcef662cf12}, !- Handle
  0.555555555555556,                      !- Tolerance for Time Heating Setpoint Not Met {deltaC}
  0.555555555555556;                      !- Tolerance for Time Cooling Setpoint Not Met {deltaC}

OS:ConvergenceLimits,
  {e3855638-53c1-4575-9899-a3431b3d84dc}, !- Handle
  1;                                      !- Minimum System Timestep {minutes}

OS:SurfaceConvectionAlgorithm:Inside,
  {6b60bf84-4b9d-4c25-bc22-ba07af2aa3f1}, !- Handle
  TARP;                                   !- Algorithm

OS:SurfaceConvectionAlgorithm:Outside,
  {0940434b-c12d-4bc7-8127-f42c5343c97c}, !- Handle
  DOE-2;                                  !- Algorithm

OS:ZoneAirHeatBalanceAlgorithm,
  {f08fc914-6ede-4360-bad6-9a3cda13ebbe}, !- Handle
  ,                                       !- Algorithm
  ,                                       !- Do Space Heat Balance for Sizing
  ;                                       !- Do Space Heat Balance for Simulation

OS:ZoneAirContaminantBalance,
  {7067fa17-050a-4c86-90ff-29555b739f9b}; !- Handle

OS:ZoneCapacitanceMultiplier:ResearchSpecial,
  {31ca3cd1-fab9-404a-85a2-3ac67ebb15ac}, !- Handle
  ,                                       !- Temperature Capacity Multiplier
  ,                                       !- Humidity Capacity Multiplier
  ;                                       !- Carbon Dioxide Capacity Multiplier

OS:Output:JSON,
  {beccf5b4-d66a-4916-9285-f8ff5f4cf0be}, !- Handle
  TimeSeriesAndTabular,                   !- Option Type
  No,                                     !- Output JSON
  No,                                     !- Output CBOR
  No;                                     !- Output MessagePack

OS:Output:Table:SummaryReports,
  {799bfa90-4541-4805-a7ce-3c04ec112021}, !- Handle
  AllSummary;                             !- Report Name 1

OS:Output:Diagnostics,
  {26d9ada6-f8dd-412a-946a-bb20e793c53e}; !- Handle

OS:Site:WaterMainsTemperature,
  {c6aba1a2-0b31-427f-817a-8372481f6e87}, !- Handle
  Correlation,                            !- Calculation Method
  ,                                       !- Temperature Schedule Name
  -1.525,                                 !- Annual Average Outdoor Air Temperature {C}
  36.2;                                   !- Maximum Difference In Monthly Average Outdoor Air Temperatures {deltaC}

OS:Building,
  {05f6e777-ad63-470c-848d-eef3247bca9d}, !- Handle
  90.1-2007|SmallOffice,                  !- Name
  ,                                       !- Building Sector Type
  ,                                       !- North Axis {deg}
  ,                                       !- Nominal Floor to Floor Height {m}
  ,                                       !- Space Type Name
  {cf069172-a7c0-4a9b-9553-e9d2cb67dead}, !- Default Construction Set Name
  ,                                       !- Default Schedule Set Name
  ,                                       !- Standards Number of Stories
  ,                                       !- Standards Number of Above Ground Stories
  ,                                       !- Standards Template
  Office;                                 !- Standards Building Type

OS:SpaceType,
  {fb3a6ac4-9235-499d-a9fc-30c263e5aa97}, !- Handle
  Office WholeBuilding - Sm Office - 90.1-2007, !- Name
  ,                                       !- Default Construction Set Name
  {2e11ecc6-7541-41b8-a458-0d23bbf2602e}, !- Default Schedule Set Name
  {198b7e47-b4cf-400e-a190-e8abcfcd3ebf}, !- Group Rendering Name
  {c56ba884-ad26-4b87-a08f-d360a0fcec9c}, !- Design Specification Outdoor Air Object Name
  ,                                       !- Standards Template
  Office,                                 !- Standards Building Type
  WholeBuilding - Sm Office;              !- Standards Space Type

OS:Rendering:Color,
  {198b7e47-b4cf-400e-a190-e8abcfcd3ebf}, !- Handle
  Office WholeBuilding - Sm Office,       !- Name
  120,                                    !- Rendering Red Value
  230,                                    !- Rendering Green Value
  199;                                    !- Rendering Blue Value

OS:BuildingStory,
  {d8659e0e-23e4-451a-bb43-aa7f7551e098}, !- Handle
  Story Ground,                           !- Name
  0,                                      !- Nominal Z Coordinate {m}
  3.048,                                  !- Nominal Floor to Floor Height {m}
  ,                                       !- Default Construction Set Name
  ,                                       !- Default Schedule Set Name
  ;                                       !- Group Rendering Name

OS:Space,
  {c1ccd122-0bd6-4fec-8226-9e43c61163c6}, !- Handle
  Office WholeBuilding - Sm Office A end_a - Story Ground, !- Name
  {fb3a6ac4-9235-499d-a9fc-30c263e5aa97}, !- Space Type Name
  ,                                       !- Default Construction Set Name
  ,                                       !- Default Schedule Set Name
  -0,                                     !- Direction of Relative North {deg}
  -22.2941979896116,                      !- X Origin {m}
  -10.4178495278559,                      !- Y Origin {m}
  0,                                      !- Z Origin {m}
  {d8659e0e-23e4-451a-bb43-aa7f7551e098}, !- Building Story Name
  {6400823e-17b6-4df0-aa3d-d40bcf8aef22}; !- Thermal Zone Name

OS:Surface,
  {9c00f650-59e3-4d8d-8160-79ebf71f10a0}, !- Handle
  Surface 1,                              !- Name
  Floor,                                  !- Surface Type
  {2cd77f7a-f9d0-472b-b6ba-0792ca0a13ac}, !- Construction Name
  {c1ccd122-0bd6-4fec-8226-9e43c61163c6}, !- Space Name
  GroundFCfactorMethod,                   !- Outside Boundary Condition
  ,                                       !- Outside Boundary Condition Object
  NoSun,                                  !- Sun Exposure
  NoWind,                                 !- Wind Exposure
  ,                                       !- View Factor to Ground
  ,                                       !- Number of Vertices
  -3.90798504668055e-14, -3.19744231092045e-14, 0, !- X,Y,Z Vertex 1 {m}
  -3.90798504668055e-14, 4.572, 0,        !- X,Y,Z Vertex 2 {m}
  4.57199999999996, 4.572, 0,             !- X,Y,Z Vertex 3 {m}
  4.57199999999996, -3.19744231092045e-14, 0; !- X,Y,Z Vertex 4 {m}

OS:Surface,
  {c8b4b87e-7cdc-44aa-a776-b9903fbca0f9}, !- Handle
  Surface 2,                              !- Name
  Wall,                                   !- Surface Type
  ,                                       !- Construction Name
  {c1ccd122-0bd6-4fec-8226-9e43c61163c6}, !- Space Name
  Outdoors,                               !- Outside Boundary Condition
  ,                                       !- Outside Boundary Condition Object
  SunExposed,                             !- Sun Exposure
  WindExposed,                            !- Wind Exposure
  ,                                       !- View Factor to Ground
  ,                                       !- Number of Vertices
  -3.90798504668055e-14, -3.19744231092045e-14, 3.048, !- X,Y,Z Vertex 1 {m}
  -3.90798504668055e-14, 4.572, 3.048,    !- X,Y,Z Vertex 2 {m}
  -3.90798504668055e-14, 4.572, 0,        !- X,Y,Z Vertex 3 {m}
  -3.90798504668055e-14, -3.19744231092045e-14, 0; !- X,Y,Z Vertex 4 {m}

OS:Surface,
  {70a90953-790c-44f2-9cba-242364e8d922}, !- Handle
  Surface 3,                              !- Name
  Wall,                                   !- Surface Type
  ,                                       !- Construction Name
  {c1ccd122-0bd6-4fec-8226-9e43c61163c6}, !- Space Name
  Surface,                                !- Outside Boundary Condition
  {0184bc93-4f21-440c-a7e9-57fb65c1ebe7}, !- Outside Boundary Condition Object
  NoSun,                                  !- Sun Exposure
  NoWind,                                 !- Wind Exposure
  ,                                       !- View Factor to Ground
  ,                                       !- Number of Vertices
  4.57199999999996, 4.572, 3.048,         !- X,Y,Z Vertex 1 {m}
  4.57199999999996, 4.572, 0,             !- X,Y,Z Vertex 2 {m}
  -3.90798504668055e-14, 4.572, 0,        !- X,Y,Z Vertex 3 {m}
  -3.90798504668055e-14, 4.572, 3.048;    !- X,Y,Z Vertex 4 {m}

OS:Surface,
  {0444d3bf-32aa-4e83-b491-d497f328c56a}, !- Handle
  Surface 4,                              !- Name
  Wall,                                   !- Surface Type
  ,                                       !- Construction Name
  {c1ccd122-0bd6-4fec-8226-9e43c61163c6}, !- Space Name
  Surface,                                !- Outside Boundary Condition
  {ffa0deca-e2bc-4e01-a292-451253ae216a}, !- Outside Boundary Condition Object
  NoSun,                                  !- Sun Exposure
  NoWind,                                 !- Wind Exposure
  ,                                       !- View Factor to Ground
  ,                                       !- Number of Vertices
  4.57199999999996, -3.19744231092045e-14, 3.048, !- X,Y,Z Vertex 1 {m}
  4.57199999999996, -3.19744231092045e-14, 0, !- X,Y,Z Vertex 2 {m}
  4.57199999999996, 4.572, 0,             !- X,Y,Z Vertex 3 {m}
  4.57199999999996, 4.572, 3.048;         !- X,Y,Z Vertex 4 {m}

OS:Surface,
  {9bb4d3b3-a912-4329-b806-32bded139159}, !- Handle
  Surface 5,                              !- Name
  Wall,                                   !- Surface Type
  ,                                       !- Construction Name
  {c1ccd122-0bd6-4fec-8226-9e43c61163c6}, !- Space Name
  Outdoors,                               !- Outside Boundary Condition
  ,                                       !- Outside Boundary Condition Object
  SunExposed,                             !- Sun Exposure
  WindExposed,                            !- Wind Exposure
  ,                                       !- View Factor to Ground
  ,                                       !- Number of Vertices
  4.57199999999996, -3.19744231092045e-14, 3.048, !- X,Y,Z Vertex 1 {m}
  -3.90798504668055e-14, -3.19744231092045e-14, 3.048, !- X,Y,Z Vertex 2 {m}
  -3.90798504668055e-14, -3.19744231092045e-14, 0, !- X,Y,Z Vertex 3 {m}
  4.57199999999996, -3.19744231092045e-14, 0; !- X,Y,Z Vertex 4 {m}

OS:Surface,
  {ff7e2ff5-cbcb-4980-90ae-97876de813a9}, !- Handle
  Surface 6,                              !- Name
  RoofCeiling,                            !- Surface Type
  ,                                       !- Construction Name
  {c1ccd122-0bd6-4fec-8226-9e43c61163c6}, !- Space Name
  Outdoors,                               !- Outside Boundary Condition
  ,                                       !- Outside Boundary Condition Object
  SunExposed,                             !- Sun Exposure
  WindExposed,                            !- Wind Exposure
  ,                                       !- View Factor to Ground
  ,                                       !- Number of Vertices
  4.57199999999996, -3.19744231092045e-14, 3.048, !- X,Y,Z Vertex 1 {m}
  4.57199999999996, 4.572, 3.048,         !- X,Y,Z Vertex 2 {m}
  -3.90798504668055e-14, 4.572, 3.048,    !- X,Y,Z Vertex 3 {m}
  -3.90798504668055e-14, -3.19744231092045e-14, 3.048; !- X,Y,Z Vertex 4 {m}

OS:ThermalZone,
  {6400823e-17b6-4df0-aa3d-d40bcf8aef22}, !- Handle
  Zone Office WholeBuilding - Sm Office A end_a - Story Ground, !- Name
  1,                                      !- Multiplier
  ,                                       !- Ceiling Height {m}
  ,                                       !- Volume {m3}
  ,                                       !- Floor Area {m2}
  ,                                       !- Zone Inside Convection Algorithm
  ,                                       !- Zone Outside Convection Algorithm
  ,                                       !- Zone Conditioning Equipment List Name
  {15bfa2ae-13d9-489a-a244-53308f10ae36}, !- Zone Air Inlet Port List
  {23ca5b52-e261-44cd-bc05-8332fd5ad8d8}, !- Zone Air Exhaust Port List
  {25eaf46f-0828-4eeb-a402-7eeeb7f54acc}, !- Zone Air Node Name
  {0e35e67b-8dd4-4e99-8b93-032b938582a1}, !- Zone Return Air Port List
  ,                                       !- Primary Daylighting Control Name
  ,                                       !- Fraction of Zone Controlled by Primary Daylighting Control
  ,                                       !- Secondary Daylighting Control Name
  ,                                       !- Fraction of Zone Controlled by Secondary Daylighting Control
  ,                                       !- Illuminance Map Name
  ,                                       !- Group Rendering Name
  {4b9808d5-55da-420f-828f-d0a9dddb562c}, !- Thermostat Name
  No;                                     !- Use Ideal Air Loads

OS:Node,
  {e37a8e88-0d7f-4b8a-8896-7bce4871588f}, !- Handle
  Zone Office WholeBuilding - Sm Office A end_a - Story Ground Zone Air Node, !- Name
  {25eaf46f-0828-4eeb-a402-7eeeb7f54acc}, !- Inlet Port
  ;                                       !- Outlet Port

OS:Connection,
  {25eaf46f-0828-4eeb-a402-7eeeb7f54acc}, !- Handle
  {6400823e-17b6-4df0-aa3d-d40bcf8aef22}, !- Source Object
  11,                                     !- Outlet Port
  {e37a8e88-0d7f-4b8a-8896-7bce4871588f}, !- Target Object
  2;                                      !- Inlet Port

OS:PortList,
  {15bfa2ae-13d9-489a-a244-53308f10ae36}, !- Handle
  {6400823e-17b6-4df0-aa3d-d40bcf8aef22}, !- HVAC Component
  {37137e04-5083-4d27-aebd-bcd6d0f28071}; !- Port 1

OS:PortList,
  {23ca5b52-e261-44cd-bc05-8332fd5ad8d8}, !- Handle
  {6400823e-17b6-4df0-aa3d-d40bcf8aef22}; !- HVAC Component

OS:PortList,
  {0e35e67b-8dd4-4e99-8b93-032b938582a1}, !- Handle
  {6400823e-17b6-4df0-aa3d-d40bcf8aef22}, !- HVAC Component
  {d3b4c409-7f20-4279-8bfb-26048acca141}; !- Port 1

OS:Sizing:Zone,
  {a69856ae-2947-4bc3-9c51-3a4a3e294e01}, !- Handle
  {6400823e-17b6-4df0-aa3d-d40bcf8aef22}, !- Zone or ZoneList Name
  SupplyAirTemperature,                   !- Zone Cooling Design Supply Air Temperature Input Method
  12.7777777777778,                       !- Zone Cooling Design Supply Air Temperature {C}
  11.11,                                  !- Zone Cooling Design Supply Air Temperature Difference {deltaC}
  SupplyAirTemperature,                   !- Zone Heating Design Supply Air Temperature Input Method
  50.0000000000001,                       !- Zone Heating Design Supply Air Temperature {C}
  11.11,                                  !- Zone Heating Design Supply Air Temperature Difference {deltaC}
  0.0085,                                 !- Zone Cooling Design Supply Air Humidity Ratio {kg-H2O/kg-air}
  0.008,                                  !- Zone Heating Design Supply Air Humidity Ratio {kg-H2O/kg-air}
  ,                                       !- Zone Heating Sizing Factor
  ,                                       !- Zone Cooling Sizing Factor
  DesignDay,                              !- Cooling Design Air Flow Method
  ,                                       !- Cooling Design Air Flow Rate {m3/s}
  ,                                       !- Cooling Minimum Air Flow per Zone Floor Area {m3/s-m2}
  ,                                       !- Cooling Minimum Air Flow {m3/s}
  ,                                       !- Cooling Minimum Air Flow Fraction
  DesignDay,                              !- Heating Design Air Flow Method
  ,                                       !- Heating Design Air Flow Rate {m3/s}
  ,                                       !- Heating Maximum Air Flow per Zone Floor Area {m3/s-m2}
  ,                                       !- Heating Maximum Air Flow {m3/s}
  ,                                       !- Heating Maximum Air Flow Fraction
  No,                                     !- Account for Dedicated Outdoor Air System
  NeutralSupplyAir,                       !- Dedicated Outdoor Air System Control Strategy
  autosize,                               !- Dedicated Outdoor Air Low Setpoint Temperature for Design {C}
  autosize,                               !- Dedicated Outdoor Air High Setpoint Temperature for Design {C}
  Sensible Load Only No Latent Load,      !- Zone Load Sizing Method
  HumidityRatioDifference,                !- Zone Latent Cooling Design Supply Air Humidity Ratio Input Method
  ,                                       !- Zone Dehumidification Design Supply Air Humidity Ratio {kgWater/kgDryAir}
  0.005,                                  !- Zone Cooling Design Supply Air Humidity Ratio Difference {kgWater/kgDryAir}
  HumidityRatioDifference,                !- Zone Latent Heating Design Supply Air Humidity Ratio Input Method
  ,                                       !- Zone Humidification Design Supply Air Humidity Ratio {kgWater/kgDryAir}
  0.005;                                  !- Zone Humidification Design Supply Air Humidity Ratio Difference {kgWater/kgDryAir}

OS:ZoneHVAC:EquipmentList,
  {b3928688-7754-46f0-821b-3b49e0f0c70d}, !- Handle
  Zone Office WholeBuilding - Sm Office A end_a - Story Ground Zone HVAC Equipment List, !- Name
  {6400823e-17b6-4df0-aa3d-d40bcf8aef22}, !- Thermal Zone
  ,                                       !- Load Distribution Scheme
  {ff2e30e1-401e-4f2a-b46f-479bdea5aff5}, !- Zone Equipment 1
  1,                                      !- Zone Equipment Cooling Sequence 1
  1,                                      !- Zone Equipment Heating or No-Load Sequence 1
  ,                                       !- Zone Equipment Sequential Cooling Fraction Schedule Name 1
  ;                                       !- Zone Equipment Sequential Heating Fraction Schedule Name 1

OS:Space,
  {19284ffe-25ee-4b37-a13b-2da4b96a04f9}, !- Handle
  Office WholeBuilding - Sm Office B end_a - Story Ground, !- Name
  {fb3a6ac4-9235-499d-a9fc-30c263e5aa97}, !- Space Type Name
  ,                                       !- Default Construction Set Name
  ,                                       !- Default Schedule Set Name
  -0,                                     !- Direction of Relative North {deg}
  -22.2941979896116,                      !- X Origin {m}
  -5.84584952785587,                      !- Y Origin {m}
  0,                                      !- Z Origin {m}
  {d8659e0e-23e4-451a-bb43-aa7f7551e098}, !- Building Story Name
  {85a007d9-5bec-4994-95bc-495665ef9219}; !- Thermal Zone Name

OS:Surface,
  {844c00e2-0bfc-41e9-95c0-c53e23dd1365}, !- Handle
  Surface 7,                              !- Name
  Floor,                                  !- Surface Type
  {8464be13-7e48-4e0d-92b9-5c2ef32ae0c4}, !- Construction Name
  {19284ffe-25ee-4b37-a13b-2da4b96a04f9}, !- Space Name
  GroundFCfactorMethod,                   !- Outside Boundary Condition
  ,                                       !- Outside Boundary Condition Object
  NoSun,                                  !- Sun Exposure
  NoWind,                                 !- Wind Exposure
  ,                                       !- View Factor to Ground
  ,                                       !- Number of Vertices
  -3.90798504668055e-14, -2.66453525910038e-15, 0, !- X,Y,Z Vertex 1 {m}
  -3.90798504668055e-14, 11.6916990557117, 0, !- X,Y,Z Vertex 2 {m}
  4.57199999999996, 11.6916990557117, 0,  !- X,Y,Z Vertex 3 {m}
  4.57199999999996, -2.66453525910038e-15, 0; !- X,Y,Z Vertex 4 {m}

OS:Surface,
  {e00dc9e2-341d-4f86-b3be-2c02b3e09de0}, !- Handle
  Surface 8,                              !- Name
  Wall,                                   !- Surface Type
  ,                                       !- Construction Name
  {19284ffe-25ee-4b37-a13b-2da4b96a04f9}, !- Space Name
  Outdoors,                               !- Outside Boundary Condition
  ,                                       !- Outside Boundary Condition Object
  SunExposed,                             !- Sun Exposure
  WindExposed,                            !- Wind Exposure
  ,                                       !- View Factor to Ground
  ,                                       !- Number of Vertices
  -3.90798504668055e-14, -2.66453525910038e-15, 3.048, !- X,Y,Z Vertex 1 {m}
  -3.90798504668055e-14, 11.6916990557117, 3.048, !- X,Y,Z Vertex 2 {m}
  -3.90798504668055e-14, 11.6916990557117, 0, !- X,Y,Z Vertex 3 {m}
  -3.90798504668055e-14, -2.66453525910038e-15, 0; !- X,Y,Z Vertex 4 {m}

OS:Surface,
  {d27b7844-d53e-4cad-9042-e36adbe3f4c8}, !- Handle
  Surface 9,                              !- Name
  Wall,                                   !- Surface Type
  ,                                       !- Construction Name
  {19284ffe-25ee-4b37-a13b-2da4b96a04f9}, !- Space Name
  Surface,                                !- Outside Boundary Condition
  {a2e44fc1-d46b-4332-bc24-b708c90dd6c7}, !- Outside Boundary Condition Object
  NoSun,                                  !- Sun Exposure
  NoWind,                                 !- Wind Exposure
  ,                                       !- View Factor to Ground
  ,                                       !- Number of Vertices
  4.57199999999996, 11.6916990557117, 3.048, !- X,Y,Z Vertex 1 {m}
  4.57199999999996, 11.6916990557117, 0,  !- X,Y,Z Vertex 2 {m}
  -3.90798504668055e-14, 11.6916990557117, 0, !- X,Y,Z Vertex 3 {m}
  -3.90798504668055e-14, 11.6916990557117, 3.048; !- X,Y,Z Vertex 4 {m}

OS:Surface,
  {0a95abe8-3dc0-4031-9a6c-e52e70dd540b}, !- Handle
  Surface 10,                             !- Name
  Wall,                                   !- Surface Type
  ,                                       !- Construction Name
  {19284ffe-25ee-4b37-a13b-2da4b96a04f9}, !- Space Name
  Surface,                                !- Outside Boundary Condition
  {cf54a5b4-2ddc-49c7-90c8-3851e7ad33b0}, !- Outside Boundary Condition Object
  NoSun,                                  !- Sun Exposure
  NoWind,                                 !- Wind Exposure
  ,                                       !- View Factor to Ground
  ,                                       !- Number of Vertices
  4.57199999999996, -2.66453525910038e-15, 3.048, !- X,Y,Z Vertex 1 {m}
  4.57199999999996, -2.66453525910038e-15, 0, !- X,Y,Z Vertex 2 {m}
  4.57199999999996, 11.6916990557117, 0,  !- X,Y,Z Vertex 3 {m}