
OS:Version,
  {e9771074-c964-4095-958c-39f47b8827d3}, !- Handle
  3.8.0;                                  !- Version Identifier

OS:Building,
  {8d85121f-469d-46fc-aa4c-4dd10f6f6d5b}, !- Handle
  ComStock 90.1-2007|LargeOffice,         !- Name
  ,                                       !- Building Sector Type
  90,                                     !- North Axis {deg}
  ,                                       !- Nominal Floor to Floor Height {m}
  ,                                       !- Space Type Name
  {dcaaf92c-a4f3-4f6b-b72a-33931918dd16}, !- Default Construction Set Name
  {1c042b39-0886-489b-9b01-d5495d6c7823}, !- Default Schedule Set Name
  ,                                       !- Standards Number of Stories
  ,                                       !- Standards Number of Above Ground Stories
  ,                                       !- Standards Template
  Office;                                 !- Standards Building Type

OS:Facility,
  {804a8aa9-fe2e-4005-a9cf-a57842dfe651}; !- Handle

OS:Site,
  {a13f0408-6eed-4f34-9234-b26bf9e81864}, !- Handle
  Mobile Regional Ap,                     !- Name
  30.68,                                  !- Latitude {deg}
  -88.25,                                 !- Longitude {deg}
  -6,                                     !- Time Zone {hr}
  66,                                     !- Elevation {m}
  City;                                   !- Terrain

OS:SimulationControl,
  {e22c7da6-75b2-42e5-b119-b2905bf6ed01}, !- Handle
  Yes,                                    !- Do Zone Sizing Calculation
  Yes,                                    !- Do System Sizing Calculation
  Yes,                                    !- Do Plant Sizing Calculation
  No,                                     !- Run Simulation for Sizing Periods
  Yes,                                    !- Run Simulation for Weather File Run Periods
  ,                                       !- Loads Convergence Tolerance Value {W}
  ,                                       !- Temperature Convergence Tolerance Value {deltaC}
  ,                                       !- Solar Distribution
  ,                                       !- Maximum Number of Warmup Days
  ,                                       !- Minimum Number of Warmup Days
  No,                                     !- Do HVAC Sizing Simulation for Sizing Periods
  1;                                      !- Maximum Number of HVAC Sizing Simulation Passes

OS:Sizing:Parameters,
  {67f48ef3-d1e9-49ce-acc5-db9759b33459}, !- Handle
  1.25,                                   !- Heating Sizing Factor
  1.15;                                   !- Cooling Sizing Factor

OS:Timestep,
  {bbdba2fb-61a2-4c7d-bb86-eb99f7da7d1b}, !- Handle
  4;                                      !- Number of Timesteps per Hour

OS:ShadowCalculation,
  {cfff93ad-1aae-460b-af68-afe52141d4ba}, !- Handle
  PolygonClipping,                        !- Shading Calculation Method
  ,                                       !- Shading Calculation Update Frequency Method
  20,                                     !- Shading Calculation Update Frequency
  15000,                                  !- Maximum Figures in Shadow Overlap Calculations
  ,                                       !- Polygon Clipping Algorithm
  512,                                    !- Pixel Counting Resolution
  ,                                       !- Sky Diffuse Modeling Algorithm
  No,                                     !- Output External Shading Calculation Results
  No,                                     !- Disable Self-Shading Within Shading Zone Groups
  No;                                     !- Disable Self-Shading From Shading Zone Groups to Other Zones

OS:HeatBalanceAlgorithm,
  {f55b0535-b22d-48ff-b12f-cdf020d7dc01}, !- Handle
  ConductionTransferFunction,             !- Algorithm
  200;                                    !- Surface Temperature Upper Limit {C}

OS:RunPeriod,
  {879f05c7-9e21-4667-8796-ca413358c5e6}, !- Handle
  Run Period 1,                           !- Name
  1,                                      !- Begin Month
  1,                                      !- Begin Day of Month
  12,                                     !- End Month
  31,                                     !- End Day of Month
  ,                                       !- Use Weather File Holidays and Special Days
  ,                                       !- Use Weather File Daylight Saving Period
  ,                                       !- Apply Weekend Holiday Rule
  ,                                       !- Use Weather File Rain Indicators
  ,                                       !- Use Weather File Snow Indicators
  ;                                       !- Number of Times Runperiod to be Repeated

OS:LifeCycleCost:Parameters,
  {14ce0c12-a2e7-4a95-84c2-3986443ae9ab}, !- Handle
  ,                                       !- Analysis Type
  ,                                       !- Discounting Convention
  ,                                       !- Inflation Approach
  ,                                       !- Real Discount Rate
  ,                                       !- Nominal Discount Rate
  ,                                       !- Inflation
  ,                                       !- Base Date Month
  ,                                       !- Base Date Year
  ,                                       !- Service Date Month
  ,                                       !- Service Date Year
  ;                                       !- Length of Study Period in Years

OS:AdditionalProperties,
  {4ba8eb83-582f-43c7-86af-39f5234b07b6}, !- Handle
  {8d85121f-469d-46fc-aa4c-4dd10f6f6d5b}, !- Object Name
  Building,                               !- Feature Name 1
  String,                                 !- Feature Data Type 1
  49,                                     !- Feature Value 1
  cook_fuel_broiler,                      !- Feature Name 2
  String,                                 !- Feature Data Type 2
  Electric,                               !- Feature Value 2
  cook_fuel_fryer,                        !- Feature Name 3
  String,                                 !- Feature Data Type 3
  Gas,                                    !- Feature Value 3
  cook_fuel_griddle,                      !- Feature Name 4
  String,                                 !- Feature Data Type 4
  Gas,                                    !- Feature Value 4
  cook_fuel_oven,                         !- Feature Name 5
  String,                                 !- Feature Data Type 5
  Electric,                               !- Feature Value 5
  cook_fuel_range,                        !- Feature Name 6
  String,                                 !- Feature Data Type 6
  Gas,                                    !- Feature Value 6
  cook_fuel_steamer,                      !- Feature Name 7
  String,                                 !- Feature Data Type 7
  Gas,                                    !- Feature Value 7
  heating_fuel,                           !- Feature Name 8
  String,                                 !- Feature Data Type 8
  DistrictHeating,                        !- Feature Value 8
  hvac_system_type,                       !- Feature Name 9
  String,                                 !- Feature Data Type 9
  VAV chiller with district hot water reheat, !- Feature Value 9
  rotation,                               !- Feature Name 10
  String,                                 !- Feature Data Type 10
  90,                                     !- Feature Value 10
  year_of_simulation,                     !- Feature Name 11
  String,                                 !- Feature Data Type 11
  2018,                                   !- Feature Value 11
  building_type,                          !- Feature Name 12
  String,                                 !- Feature Data Type 12
  large_office,                           !- Feature Value 12
  sampling_region,                        !- Feature Name 13
  String,                                 !- Feature Data Type 13
  0,                                      !- Feature Value 13
  size_bin,                               !- Feature Name 14
  String,                                 !- Feature Data Type 14
  1,                                      !- Feature Value 14
  building_area,                          !- Feature Name 15
  String,                                 !- Feature Data Type 15
  200001_400000,                          !- Feature Value 15
  tract,                                  !- Feature Name 16
  String,                                 !- Feature Data Type 16
  G0101010000100,                         !- Feature Value 16
  year_built,                             !- Feature Name 17
  String,                                 !- Feature Data Type 17
  2015,                                   !- Feature Value 17
  number_stories,                         !- Feature Name 18
  String,                                 !- Feature Data Type 18
  1,                                      !- Feature Value 18
  state_id,                               !- Feature Name 19
  String,                                 !- Feature Data Type 19
  G010,                                   !- Feature Value 19
  county_id,                              !- Feature Name 20
  String,                                 !- Feature Data Type 20
  G0101010,                               !- Feature Value 20
  building_subtype,                       !- Feature Name 21
  String,                                 !- Feature Data Type 21
  largeoffice_nodatacenter,               !- Feature Value 21
  census_region,                          !- Feature Name 22
  String,                                 !- Feature Data Type 22
  East South Central,                     !- Feature Value 22
  climate_zone,                           !- Feature Name 23
  String,                                 !- Feature Data Type 23
  3A,                                     !- Feature Value 23
  ground_thermal_conductivity,            !- Feature Name 24
  String,                                 !- Feature Data Type 24
  1.4,                                    !- Feature Value 24
  energy_code_compliance_during_original_building_construction, !- Feature Name 25
  String,                                 !- Feature Data Type 25
  comply,                                 !- Feature Value 25
  ownership_status,                       !- Feature Name 26
  String,                                 !- Feature Data Type 26
  owner_occupied,                         !- Feature Value 26
  party_responsible_for_operation,        !- Feature Name 27
  String,                                 !- Feature Data Type 27
  building_owner,                         !- Feature Value 27
  purchase_input_responsibility,          !- Feature Name 28
  String,                                 !- Feature Data Type 28
  building_owner,                         !- Feature Value 28
  year_bin_of_original_building_construction, !- Feature Name 29
  String,                                 !- Feature Data Type 29
  2015,                                   !- Feature Value 29
  energy_code_in_force_during_original_building_construction, !- Feature Name 30
  String,                                 !- Feature Data Type 30
  ComStock 90.1-2007,                     !- Feature Value 30
  window_wall_ratio,                      !- Feature Name 31
  String,                                 !- Feature Data Type 31
  51_75pct,                               !- Feature Value 31
  energy_code_followed_during_original_building_construction, !- Feature Name 32
  String,                                 !- Feature Data Type 32
  ComStock 90.1-2007,                     !- Feature Value 32
  building_shape,                         !- Feature Name 33
  String,                                 !- Feature Data Type 33
  2,                                      !- Feature Value 33
  service_water_heating_fuel,             !- Feature Name 34
  String,                                 !- Feature Data Type 34
  DistrictHeating,                        !- Feature Value 34
  wall_construction_type,                 !- Feature Name 35
  String,                                 !- Feature Data Type 35
  steel_framed,                           !- Feature Value 35
  weekday_start_time,                     !- Feature Name 36
  String,                                 !- Feature Data Type 36
  5.75,                                   !- Feature Value 36
  weekend_start_time,                     !- Feature Name 37
  String,                                 !- Feature Data Type 37
  6.75,                                   !- Feature Value 37
  thermal_bridging,                       !- Feature Name 38
  String,                                 !- Feature Data Type 38
  steel-framed and metal unmitigated,     !- Feature Value 38
  airtightness,                           !- Feature Name 39
  String,                                 !- Feature Data Type 39
  50.0,                                   !- Feature Value 39
  aspect_ratio,                           !- Feature Name 40
  String,                                 !- Feature Data Type 40
  2,                                      !- Feature Value 40
  weekday_duration,                       !- Feature Name 41
  String,                                 !- Feature Data Type 41
  10.25,                                  !- Feature Value 41
  weekend_duration,                       !- Feature Name 42
  String,                                 !- Feature Data Type 42
  11.0,                                   !- Feature Value 42
  energy_code_compliance_hvac,            !- Feature Name 43
  String,                                 !- Feature Data Type 43
  comply,                                 !- Feature Value 43
  fault_economizer_damper_fully_closed,   !- Feature Name 44
  String,                                 !- Feature Data Type 44
  No fault,                               !- Feature Value 44
  hvac_night_variability,                 !- Feature Name 45
  String,                                 !- Feature Data Type 45
  night_fanon_vent,                       !- Feature Value 45
  hvac_tst_clg_delta_f,                   !- Feature Name 46
  String,                                 !- Feature Data Type 46
  6,                                      !- Feature Value 46
  hvac_tst_clg_sp_f,                      !- Feature Name 47
  String,                                 !- Feature Data Type 47
  77,                                     !- Feature Value 47
  hvac_tst_htg_delta_f,                   !- Feature Name 48
  String,                                 !- Feature Data Type 48
  6,                                      !- Feature Value 48
  hvac_tst_htg_sp_f,                      !- Feature Name 49
  String,                                 !- Feature Data Type 49
  68,                                     !- Feature Value 49
  year_bin_of_last_hvac_replacement,      !- Feature Name 50
  String,                                 !- Feature Data Type 50
  2015,                                   !- Feature Value 50
  energy_code_in_force_during_last_hvac_replacement, !- Feature Name 51
  String,                                 !- Feature Data Type 51
  ComStock 90.1-2007,                     !- Feature Value 51
  energy_code_followed_during_last_hvac_replacement, !- Feature Name 52
  String,                                 !- Feature Data Type 52
  ComStock 90.1-2007,                     !- Feature Value 52
  fault_economizer_db_limit,              !- Feature Name 53
  String,                                 !- Feature Data Type 53
  Fault,                                  !- Feature Value 53
  cook_dining_type,                       !- Feature Name 54
  String,                                 !- Feature Data Type 54
  None,                                   !- Feature Value 54
  cook_fryers_counts,                     !- Feature Name 55
  String,                                 !- Feature Data Type 55
  0.0,                                    !- Feature Value 55
  cook_griddles_counts,                   !- Feature Name 56
  String,                                 !- Feature Data Type 56
  0.0,                                    !- Feature Value 56
  cook_ovens_counts,                      !- Feature Name 57
  String,                                 !- Feature Data Type 57
  0.0,                                    !- Feature Value 57
  cook_ranges_counts,                     !- Feature Name 58
  String,                                 !- Feature Data Type 58
  0.0,                                    !- Feature Value 58
  cook_steamers_counts,                   !- Feature Name 59
  String,                                 !- Feature Data Type 59
  0.0,                                    !- Feature Value 59
  cook_broiler_counts,                    !- Feature Name 60
  String,                                 !- Feature Data Type 60
  0.0,                                    !- Feature Value 60
  energy_code_compliance_service_water_heating, !- Feature Name 61
  String,                                 !- Feature Data Type 61
  comply,                                 !- Feature Value 61
  energy_code_compliance_interior_equipment, !- Feature Name 62
  String,                                 !- Feature Data Type 62
  comply,                                 !- Feature Value 62
  plugload_sch_base_peak_ratio_type,      !- Feature Name 63
  String,                                 !- Feature Data Type 63
  office_plugload_bpr_almost_on,          !- Feature Value 63
  plugload_sch_weekday_base_peak_ratio,   !- Feature Name 64
  String,                                 !- Feature Data Type 64
  0.95,                                   !- Feature Value 64
  plugload_sch_weekend_base_peak_ratio,   !- Feature Name 65
  String,                                 !- Feature Data Type 65
  0.85,                                   !- Feature Value 65
  year_bin_of_last_interior_equipment_replacement, !- Feature Name 66
  String,                                 !- Feature Data Type 66
  2015,                                   !- Feature Value 66
  year_bin_of_last_service_water_heating_replacement, !- Feature Name 67
  String,                                 !- Feature Data Type 67
  2015,                                   !- Feature Value 67
  energy_code_in_force_during_last_interior_equipment_replacement, !- Feature Name 68
  String,                                 !- Feature Data Type 68
  ComStock 90.1-2007,                     !- Feature Value 68
  energy_code_in_force_during_last_service_water_heating_replacement, !- Feature Name 69
  String,                                 !- Feature Data Type 69
  ComStock 90.1-2007,                     !- Feature Value 69
  energy_code_followed_during_last_interior_equipment_replacement, !- Feature Name 70
  String,                                 !- Feature Data Type 70
  ComStock 90.1-2007,                     !- Feature Value 70
  energy_code_followed_during_last_service_water_heating_replacement, !- Feature Name 71
  String,                                 !- Feature Data Type 71
  ComStock 90.1-2007,                     !- Feature Value 71
  building_size_lighting_tech,            !- Feature Name 72
  String,                                 !- Feature Data Type 72
  large,                                  !- Feature Value 72
  energy_code_compliance_exterior_lighting, !- Feature Name 73
  String,                                 !- Feature Data Type 73
  comply,                                 !- Feature Value 73
  energy_code_compliance_interior_lighting, !- Feature Name 74
  String,                                 !- Feature Data Type 74
  lead,                                   !- Feature Value 74
  ltg_sch_base_peak_ratio_type,           !- Feature Name 75
  String,                                 !- Feature Data Type 75
  office_ltg_bpr_no_strict_schedule_towards_on, !- Feature Value 75
  ltg_sch_weekday_base_peak_ratio,        !- Feature Name 76
  String,                                 !- Feature Data Type 76
  0.3,                                    !- Feature Value 76
  ltg_sch_weekend_base_peak_ratio,        !- Feature Name 77
  String,                                 !- Feature Data Type 77
  0.45,                                   !- Feature Value 77
  year_bin_of_last_exterior_lighting_replacement, !- Feature Name 78
  String,                                 !- Feature Data Type 78
  2015,                                   !- Feature Value 78
  year_bin_of_last_interior_lighting_replacement, !- Feature Name 79
  String,                                 !- Feature Data Type 79
  2015,                                   !- Feature Value 79
  energy_code_in_force_during_last_exterior_lighting_replacement, !- Feature Name 80
  String,                                 !- Feature Data Type 80
  ComStock 90.1-2007,                     !- Feature Value 80
  energy_code_in_force_during_last_interior_lighting_replacement, !- Feature Name 81
  String,                                 !- Feature Data Type 81
  ComStock 90.1-2007,                     !- Feature Value 81
  lighting_generation,                    !- Feature Name 82
  String,                                 !- Feature Data Type 82
  gen2_t8_halogen,                        !- Feature Value 82
  energy_code_followed_during_last_exterior_lighting_replacement, !- Feature Name 83
  String,                                 !- Feature Data Type 83
  ComStock 90.1-2007,                     !- Feature Value 83
  energy_code_followed_during_last_interior_lighting_replacement, !- Feature Name 84
  String,                                 !- Feature Data Type 84
  ComStock 90.1-2019,                     !- Feature Value 84
  energy_code_compliance_roof,            !- Feature Name 85
  String,                                 !- Feature Data Type 85
  comply,                                 !- Feature Value 85
  energy_code_compliance_walls,           !- Feature Name 86
  String,                                 !- Feature Data Type 86
  comply,                                 !- Feature Value 86
  energy_code_compliance_windows,         !- Feature Name 87
  String,                                 !- Feature Data Type 87
  comply,                                 !- Feature Value 87
  year_bin_of_last_roof_replacement,      !- Feature Name 88
  String,                                 !- Feature Data Type 88
  2015,                                   !- Feature Value 88
  year_bin_of_last_walls_replacement,     !- Feature Name 89
  String,                                 !- Feature Data Type 89
  2015,                                   !- Feature Value 89
  year_bin_of_last_windows_replacement,   !- Feature Name 90
  String,                                 !- Feature Data Type 90
  2015,                                   !- Feature Value 90
  energy_code_in_force_during_last_roof_replacement, !- Feature Name 91
  String,                                 !- Feature Data Type 91
  ComStock 90.1-2007,                     !- Feature Value 91
  energy_code_in_force_during_last_walls_replacement, !- Feature Name 92
  String,                                 !- Feature Data Type 92
  ComStock 90.1-2007,                     !- Feature Value 92
  energy_code_in_force_during_last_windows_replacement, !- Feature Name 93
  String,                                 !- Feature Data Type 93
  ComStock 90.1-2007,                     !- Feature Value 93
  energy_code_followed_during_last_roof_replacement, !- Feature Name 94
  String,                                 !- Feature Data Type 94
  ComStock 90.1-2007,                     !- Feature Value 94
  energy_code_followed_during_last_walls_replacement, !- Feature Name 95
  String,                                 !- Feature Data Type 95
  ComStock 90.1-2007,                     !- Feature Value 95
  energy_code_followed_during_last_windows_replacement, !- Feature Name 96
  String,                                 !- Feature Data Type 96
  ComStock 90.1-2007,                     !- Feature Value 96
  baseline_window_type,                   !- Feature Name 97
  String,                                 !- Feature Data Type 97
  Double - LowE - Tinted/Reflective - Thermally Broken Aluminum, !- Feature Value 97
  baseline_hvac_sizing,                   !- Feature Name 98
  String,                                 !- Feature Data Type 98
  hardsize,                               !- Feature Value 98
  nhgis_tract_gisjoin,                    !- Feature Name 99
  String,                                 !- Feature Data Type 99
  G0101010000100,                         !- Feature Value 99
  nhgis_county_gisjoin,                   !- Feature Name 100
  String,                                 !- Feature Data Type 100
  G0101010,                               !- Feature Value 100
  nhgis_puma_gisjoin,                     !- Feature Name 101
  String,                                 !- Feature Data Type 101
  G01002000,                              !- Feature Value 101
  state_name,                             !- Feature Name 102
  String,                                 !- Feature Data Type 102
  Alabama,                                !- Feature Value 102
  state_abbreviation,                     !- Feature Name 103
  String,                                 !- Feature Data Type 103
  AL,                                     !- Feature Value 103
  census_division_name,                   !- Feature Name 104
  String,                                 !- Feature Data Type 104
  East South Central,                     !- Feature Value 104
  census_region_name,                     !- Feature Name 105
  String,                                 !- Feature Data Type 105
  South,                                  !- Feature Value 105
  census_division_name_recs,              !- Feature Name 106
  String,                                 !- Feature Data Type 106
  East South Central,                     !- Feature Value 106
  american_housing_survey_region,         !- Feature Name 107
  String,                                 !- Feature Data Type 107
  Non-CBSA East South Central,            !- Feature Value 107
  weather_file_2018,                      !- Feature Name 108
  String,                                 !- Feature Data Type 108
  USA_AL_Maxwell.Afb.722265_2018.epw,     !- Feature Value 108
  weather_file_TMY3,                      !- Feature Name 109
  String,                                 !- Feature Data Type 109
  Maxwell_Afb,                            !- Feature Value 109
  climate_zone_building_america,          !- Feature Name 110
  String,                                 !- Feature Data Type 110
  Hot-Humid,                              !- Feature Value 110
  climate_zone_ashrae_2006,               !- Feature Name 111
  String,                                 !- Feature Data Type 111
  3A,                                     !- Feature Value 111
  iso_region,                             !- Feature Name 112
  String,                                 !- Feature Data Type 112
  NotApplicable,                          !- Feature Value 112
  reeds_balancing_area,                   !- Feature Name 113
  String,                                 !- Feature Data Type 113
  90,                                     !- Feature Value 113
  resstock_county_id,                     !- Feature Name 114
  String,                                 !- Feature Data Type 114
  AL&#44 Montgomery County,               !- Feature Value 114
  resstock_puma_id,                       !- Feature Name 115
  String,                                 !- Feature Data Type 115
  AL&#44 02000,                           !- Feature Value 115
  resstock_custom_region,                 !- Feature Name 116
  String,                                 !- Feature Data Type 116
  CR09,                                   !- Feature Value 116
  cambium_grid_region,                    !- Feature Name 117
  String,                                 !- Feature Data Type 117
  SRSOc,                                  !- Feature Value 117
  cluster_id,                             !- Feature Name 118
  String,                                 !- Feature Data Type 118
  53,                                     !- Feature Value 118
  cluster_name,                           !- Feature Name 119
  String,                                 !- Feature Data Type 119
  Central Alabama,                        !- Feature Value 119
  grid_region,                            !- Feature Name 120
  String,                                 !- Feature Data Type 120
  SRSOc,                                  !- Feature Value 120
  Soil Conductivity,                      !- Feature Name 121
  Double,                                 !- Feature Data Type 121
  1.3999999999999999,                     !- Feature Value 121
  Undisturbed Ground Temperature,         !- Feature Name 122
  Double,                                 !- Feature Data Type 122
  17.899999999999999,                     !- Feature Value 122
  wall_as_constructed_template,           !- Feature Name 123
  String,                                 !- Feature Data Type 123
  ComStock 90.1-2007,                     !- Feature Value 123
  wall_template,                          !- Feature Name 124
  String,                                 !- Feature Data Type 124
  ComStock 90.1-2007,                     !- Feature Value 124
  roof_as_constructed_template,           !- Feature Name 125
  String,                                 !- Feature Data Type 125
  ComStock 90.1-2007,                     !- Feature Value 125
  roof_template,                          !- Feature Name 126
  String,                                 !- Feature Data Type 126