
OS:Version,
  {f780fc30-903a-4f91-99a5-e5c300190da8}, !- Handle
  2.9.1;                                  !- Version Identifier

OS:Site,
  {0d0a4229-b739-4bb6-b295-c06210707ae6}, !- Handle
  Kearney Muni_NE_USA,                    !- Name
  40.73,                                  !- Latitude {deg}
  -99,                                    !- Longitude {deg}
  -6,                                     !- Time Zone {hr}
  649,                                    !- Elevation {m}
  City;                                   !- Terrain

OS:YearDescription,
  {48ca13e6-87e5-4f79-933b-f5e08ab89ce4}; !- Handle

OS:ClimateZones,
  {b23c57a1-3480-4aff-9720-d0965561b984}, !- Handle
  ,                                       !- Active Institution
  ,                                       !- Active Year
  ASHRAE,                                 !- Climate Zone Institution Name 1
  ANSI/ASHRAE Standard 169,               !- Climate Zone Document Name 1
  2006,                                   !- Climate Zone Document Year 1
  ASHRAE 169-2013-5A;                     !- Climate Zone Value 1

OS:Facility,
  {b4ee03df-2a17-41af-940e-b0c731827fb1}; !- Handle

OS:SimulationControl,
  {1d86c0cb-92c5-4282-8d0d-2096d361bc24}, !- Handle
  ,                                       !- Do Zone Sizing Calculation
  ,                                       !- Do System Sizing Calculation
  ,                                       !- Do Plant Sizing Calculation
  Yes,                                    !- Run Simulation for Sizing Periods
  No;                                     !- Run Simulation for Weather File Run Periods

OS:Sizing:Parameters,
  {a7449062-0d27-49f1-9fb8-c5dc5e8942af}, !- Handle
  1.25,                                   !- Heating Sizing Factor
  1.15;                                   !- Cooling Sizing Factor

OS:Timestep,
  {c558d391-7c5d-4760-ba39-5e45174b0296}, !- Handle
  6;                                      !- Number of Timesteps per Hour

OS:ShadowCalculation,
  {7ed687dd-22d2-45db-b315-f97b16ff6140}, !- Handle
  20,                                     !- Calculation Frequency
  15000;                                  !- Maximum Figures in Shadow Overlap Calculations

OS:HeatBalanceAlgorithm,
  {2f353a7e-b176-4f6c-b9df-8b1b8661f7ed}, !- Handle
  ConductionTransferFunction,             !- Algorithm
  200;                                    !- Surface Temperature Upper Limit {C}

OS:RunPeriod,
  {7fa10d58-46db-491a-8575-0e8334f6d3d5}, !- Handle
  Run Period 1,                           !- Name
  1,                                      !- Begin Month
  1,                                      !- Begin Day of Month
  12,                                     !- End Month
  31,                                     !- End Day of Month
  ,                                       !- Use Weather File Holidays and Special Days
  ,                                       !- Use Weather File Daylight Saving Period
  ,                                       !- Apply Weekend Holiday Rule
  ,                                       !- Use Weather File Rain Indicators
  ,                                       !- Use Weather File Snow Indicators
  ;                                       !- Number of Times Runperiod to be Repeated

OS:LifeCycleCost:Parameters,
  {06b6f67d-3ece-4057-b1bc-4f35b0b609fc}, !- Handle
  ,                                       !- Analysis Type
  ,                                       !- Discounting Convention
  ,                                       !- Inflation Approach
  ,                                       !- Real Discount Rate
  ,                                       !- Nominal Discount Rate
  ,                                       !- Inflation
  ,                                       !- Base Date Month
  ,                                       !- Base Date Year
  ,                                       !- Service Date Month
  ,                                       !- Service Date Year
  ;                                       !- Length of Study Period in Years

OS:RadianceParameters,
  {b9ccd206-624c-429f-b565-d5ce52b60f52}, !- Handle
  1,                                      !- Accumulated Rays per Record
  0,                                      !- Direct Threshold
  1,                                      !- Direct Certainty
  1,                                      !- Direct Jitter
  1,                                      !- Direct Pretest
  6,                                      !- Ambient Bounces VMX
  2,                                      !- Ambient Bounces DMX
  4050,                                   !- Ambient Divisions VMX
  512,                                    !- Ambient Divisions DMX
  256,                                    !- Ambient Supersamples
  0.001,                                  !- Limit Weight VMX
  0.001,                                  !- Limit Weight DMX
  500,                                    !- Klems Sampling Density
  146;                                    !- Sky Discretization Resolution

OS:ProgramControl,
  {2cf3fad6-f3f9-4f4a-b40d-739eb3f7cf73}; !- Handle

OS:OutputControl:ReportingTolerances,
  {f4508962-1847-40ca-92eb-9e0838e5a568}; !- Handle

OS:ConvergenceLimits,
  {665033b5-f95b-48c3-ad0e-885231401650}, !- Handle
  1;                                      !- Minimum System Timestep {minutes}

OS:SurfaceConvectionAlgorithm:Inside,
  {3a0ff70b-5a14-427f-8f77-25d3aad5312b}, !- Handle
  TARP;                                   !- Algorithm

OS:SurfaceConvectionAlgorithm:Outside,
  {f0175428-c042-4b8f-8225-258b55ebacb8}, !- Handle
  DOE-2;                                  !- Algorithm

OS:ZoneAirHeatBalanceAlgorithm,
  {3409bec6-7ac3-4b92-a166-1aeec377effa}, !- Handle
  ThirdOrderBackwardDifference;           !- Algorithm

OS:ZoneAirContaminantBalance,
  {f09633c9-da68-4009-8c32-d62bbfde022d}; !- Handle

OS:ZoneCapacitanceMultiplier:ResearchSpecial,
  {ae1ee377-50ce-4b12-9a67-a2af8eea2089}, !- Handle
  ,                                       !- Temperature Capacity Multiplier
  ,                                       !- Humidity Capacity Multiplier
  ;                                       !- Carbon Dioxide Capacity Multiplier

OS:WeatherFile,
  {f85a6756-eb30-469b-9433-ebeddceb9c93}, !- Handle
  Kearney Muni,                           !- City
  NE,                                     !- State Province Region
  USA,                                    !- Country
  customized weather file,                !- Data Source
  725526,                                 !- WMO Number
  40.73,                                  !- Latitude {deg}
  -99,                                    !- Longitude {deg}
  -6,                                     !- Time Zone {hr}
  649,                                    !- Elevation {m}
  file:///C:/mprapros/BLDG.10135.27.27.00 - ComStock/ComStock Measures/2012_weather/USA_NE_Kearney.Muni.725526_2012.epw, !- Url
  ;                                       !- Checksum

OS:Site:WaterMainsTemperature,
  {71b153b0-9bd4-431a-a99e-7e3bede03a70}, !- Handle
  Correlation,                            !- Calculation Method
  ,                                       !- Temperature Schedule Name
  11.95,                                  !- Annual Average Outdoor Air Temperature {C}
  27.8;                                   !- Maximum Difference In Monthly Average Outdoor Air Temperatures {deltaC}

OS:SizingPeriod:DesignDay,
  {db13fc14-f7eb-42ca-bd04-bcba3c8132e6}, !- Handle
  Kearney Muni Ann Clg .4% Condns DB=>MWB 1, !- Name
  34,                                     !- Maximum Dry-Bulb Temperature {C}
  12.1,                                   !- Daily Dry-Bulb Temperature Range {deltaC}
  22.7,                                   !- Humidity Indicating Conditions at Maximum Dry-Bulb
  93767,                                  !- Barometric Pressure {Pa}
  6.3,                                    !- Wind Speed {m/s}
  190,                                    !- Wind Direction {deg}
  0,                                      !- Sky Clearness
  0,                                      !- Rain Indicator
  0,                                      !- Snow Indicator
  21,                                     !- Day of Month
  7,                                      !- Month
  SummerDesignDay,                        !- Day Type
  0,                                      !- Daylight Saving Time Indicator
  Wetbulb,                                !- Humidity Indicating Type
  ,                                       !- Humidity Indicating Day Schedule Name
  DefaultMultipliers,                     !- Dry-Bulb Temperature Range Modifier Type
  ,                                       !- Dry-Bulb Temperature Range Modifier Schedule Name
  ASHRAETau,                              !- Solar Model Indicator
  ,                                       !- Beam Solar Day Schedule Name
  ,                                       !- Diffuse Solar Day Schedule Name
  0.352,                                  !- ASHRAE Taub {dimensionless}
  2.379;                                  !- ASHRAE Taud {dimensionless}

OS:SizingPeriod:DesignDay,
  {bfd31f3c-f68b-459e-9323-fe25027cb4ae}, !- Handle
  Kearney Muni Ann Clg .4% Condns WB=>MDB 1, !- Name
  31.3,                                   !- Maximum Dry-Bulb Temperature {C}
  12.1,                                   !- Daily Dry-Bulb Temperature Range {deltaC}
  24.8,                                   !- Humidity Indicating Conditions at Maximum Dry-Bulb
  93767,                                  !- Barometric Pressure {Pa}
  6.3,                                    !- Wind Speed {m/s}
  190,                                    !- Wind Direction {deg}
  0,                                      !- Sky Clearness
  0,                                      !- Rain Indicator
  0,                                      !- Snow Indicator
  21,                                     !- Day of Month
  7,                                      !- Month
  SummerDesignDay,                        !- Day Type
  0,                                      !- Daylight Saving Time Indicator
  Wetbulb,                                !- Humidity Indicating Type
  ,                                       !- Humidity Indicating Day Schedule Name
  DefaultMultipliers,                     !- Dry-Bulb Temperature Range Modifier Type
  ,                                       !- Dry-Bulb Temperature Range Modifier Schedule Name
  ASHRAETau,                              !- Solar Model Indicator
  ,                                       !- Beam Solar Day Schedule Name
  ,                                       !- Diffuse Solar Day Schedule Name
  0.352,                                  !- ASHRAE Taub {dimensionless}
  2.379;                                  !- ASHRAE Taud {dimensionless}

OS:SizingPeriod:DesignDay,
  {63fcab3a-e273-4753-ae99-fa8c1a239a51}, !- Handle
  Kearney Muni Ann Clg 1% Condns DB=>MWB 1, !- Name
  32.6,                                   !- Maximum Dry-Bulb Temperature {C}
  12.1,                                   !- Daily Dry-Bulb Temperature Range {deltaC}
  22.4,                                   !- Humidity Indicating Conditions at Maximum Dry-Bulb
  93767,                                  !- Barometric Pressure {Pa}
  6.3,                                    !- Wind Speed {m/s}
  190,                                    !- Wind Direction {deg}
  0,                                      !- Sky Clearness
  0,                                      !- Rain Indicator
  0,                                      !- Snow Indicator
  21,                                     !- Day of Month
  7,                                      !- Month
  SummerDesignDay,                        !- Day Type
  0,                                      !- Daylight Saving Time Indicator
  Wetbulb,                                !- Humidity Indicating Type
  ,                                       !- Humidity Indicating Day Schedule Name
  DefaultMultipliers,                     !- Dry-Bulb Temperature Range Modifier Type
  ,                                       !- Dry-Bulb Temperature Range Modifier Schedule Name
  ASHRAETau,                              !- Solar Model Indicator
  ,                                       !- Beam Solar Day Schedule Name
  ,                                       !- Diffuse Solar Day Schedule Name
  0.352,                                  !- ASHRAE Taub {dimensionless}
  2.379;                                  !- ASHRAE Taud {dimensionless}

OS:SizingPeriod:DesignDay,
  {65695ad6-e2b1-434b-a914-934f51e2ae68}, !- Handle
  Kearney Muni Ann Clg 2% Condns DP=>MDB 1, !- Name
  27.2,                                   !- Maximum Dry-Bulb Temperature {C}
  12.1,                                   !- Daily Dry-Bulb Temperature Range {deltaC}
  21,                                     !- Humidity Indicating Conditions at Maximum Dry-Bulb
  93767,                                  !- Barometric Pressure {Pa}
  6.3,                                    !- Wind Speed {m/s}
  190,                                    !- Wind Direction {deg}
  0,                                      !- Sky Clearness
  0,                                      !- Rain Indicator
  0,                                      !- Snow Indicator
  21,                                     !- Day of Month
  7,                                      !- Month
  SummerDesignDay,                        !- Day Type
  0,                                      !- Daylight Saving Time Indicator
  Dewpoint,                               !- Humidity Indicating Type
  ,                                       !- Humidity Indicating Day Schedule Name
  DefaultMultipliers,                     !- Dry-Bulb Temperature Range Modifier Type
  ,                                       !- Dry-Bulb Temperature Range Modifier Schedule Name
  ASHRAETau,                              !- Solar Model Indicator
  ,                                       !- Beam Solar Day Schedule Name
  ,                                       !- Diffuse Solar Day Schedule Name
  0.352,                                  !- ASHRAE Taub {dimensionless}
  2.379;                                  !- ASHRAE Taud {dimensionless}

OS:SizingPeriod:DesignDay,
  {8dbdcdc5-e3a4-448a-bb7c-b6b3cc9aa1e5}, !- Handle
  Kearney Muni Ann Htg 99% Condns DB 1,   !- Name
  -16.3,                                  !- Maximum Dry-Bulb Temperature {C}
  0,                                      !- Daily Dry-Bulb Temperature Range {deltaC}
  -16.3,                                  !- Humidity Indicating Conditions at Maximum Dry-Bulb
  93767,                                  !- Barometric Pressure {Pa}
  4.4,                                    !- Wind Speed {m/s}
  320,                                    !- Wind Direction {deg}
  0,                                      !- Sky Clearness
  0,                                      !- Rain Indicator
  0,                                      !- Snow Indicator
  21,                                     !- Day of Month
  1,                                      !- Month
  WinterDesignDay,                        !- Day Type
  0,                                      !- Daylight Saving Time Indicator
  Wetbulb,                                !- Humidity Indicating Type
  ,                                       !- Humidity Indicating Day Schedule Name
  DefaultMultipliers,                     !- Dry-Bulb Temperature Range Modifier Type
  ,                                       !- Dry-Bulb Temperature Range Modifier Schedule Name
  ASHRAEClearSky;                         !- Solar Model Indicator

OS:SizingPeriod:DesignDay,
  {3ef1b577-2fde-472b-b3fa-10007b40d426}, !- Handle
  Kearney Muni Ann Htg 99.6% Condns DB 1, !- Name
  -18.8,                                  !- Maximum Dry-Bulb Temperature {C}
  0,                                      !- Daily Dry-Bulb Temperature Range {deltaC}
  -18.8,                                  !- Humidity Indicating Conditions at Maximum Dry-Bulb
  93767,                                  !- Barometric Pressure {Pa}
  4.4,                                    !- Wind Speed {m/s}
  320,                                    !- Wind Direction {deg}
  0,                                      !- Sky Clearness
  0,                                      !- Rain Indicator
  0,                                      !- Snow Indicator
  21,                                     !- Day of Month
  1,                                      !- Month
  WinterDesignDay,                        !- Day Type
  0,                                      !- Daylight Saving Time Indicator
  Wetbulb,                                !- Humidity Indicating Type
  ,                                       !- Humidity Indicating Day Schedule Name
  DefaultMultipliers,                     !- Dry-Bulb Temperature Range Modifier Type
  ,                                       !- Dry-Bulb Temperature Range Modifier Schedule Name
  ASHRAEClearSky;                         !- Solar Model Indicator

OS:SizingPeriod:DesignDay,
  {f3985457-d319-4d28-ac7e-013df80510ac}, !- Handle
  Kearney Muni Ann Htg Wind 99% Condns WS=>MCDB 1, !- Name
  -1.7,                                   !- Maximum Dry-Bulb Temperature {C}
  0,                                      !- Daily Dry-Bulb Temperature Range {deltaC}
  -1.7,                                   !- Humidity Indicating Conditions at Maximum Dry-Bulb
  93767,                                  !- Barometric Pressure {Pa}
  12.9,                                   !- Wind Speed {m/s}
  320,                                    !- Wind Direction {deg}
  0,                                      !- Sky Clearness
  0,                                      !- Rain Indicator
  0,                                      !- Snow Indicator
  21,                                     !- Day of Month
  1,                                      !- Month
  WinterDesignDay,                        !- Day Type
  0,                                      !- Daylight Saving Time Indicator
  Wetbulb,                                !- Humidity Indicating Type
  ,                                       !- Humidity Indicating Day Schedule Name
  DefaultMultipliers,                     !- Dry-Bulb Temperature Range Modifier Type
  ,                                       !- Dry-Bulb Temperature Range Modifier Schedule Name
  ASHRAEClearSky;                         !- Solar Model Indicator

OS:SizingPeriod:DesignDay,
  {9b9be4d4-f7ae-4e21-822a-0ad3a54755ff}, !- Handle
  Kearney Muni April .4% Condns DB=>MCWB 1, !- Name
  29.1,                                   !- Maximum Dry-Bulb Temperature {C}
  13.1,                                   !- Daily Dry-Bulb Temperature Range {deltaC}
  14.7,                                   !- Humidity Indicating Conditions at Maximum Dry-Bulb
  93767,                                  !- Barometric Pressure {Pa}
  6.3,                                    !- Wind Speed {m/s}
  190,                                    !- Wind Direction {deg}
  0,                                      !- Sky Clearness
  0,                                      !- Rain Indicator
  0,                                      !- Snow Indicator
  21,                                     !- Day of Month
  4,                                      !- Month
  SummerDesignDay,                        !- Day Type
  0,                                      !- Daylight Saving Time Indicator
  Wetbulb,                                !- Humidity Indicating Type
  ,                                       !- Humidity Indicating Day Schedule Name
  DefaultMultipliers,                     !- Dry-Bulb Temperature Range Modifier Type
  ,                                       !- Dry-Bulb Temperature Range Modifier Schedule Name
  ASHRAETau,                              !- Solar Model Indicator
  ,                                       !- Beam Solar Day Schedule Name
  ,                                       !- Diffuse Solar Day Schedule Name
  0.311,                                  !- ASHRAE Taub {dimensionless}
  2.449;                                  !- ASHRAE Taud {dimensionless}

OS:SizingPeriod:DesignDay,
  {a7ac9626-3742-4ac8-9b8b-02dc11e35067}, !- Handle
  Kearney Muni April .4% Condns WB=>MCDB 1, !- Name
  24.5,                                   !- Maximum Dry-Bulb Temperature {C}
  13.1,                                   !- Daily Dry-Bulb Temperature Range {deltaC}
  17.2,                                   !- Humidity Indicating Conditions at Maximum Dry-Bulb
  93767,                                  !- Barometric Pressure {Pa}
  6.3,                                    !- Wind Speed {m/s}
  190,                                    !- Wind Direction {deg}
  0,                                      !- Sky Clearness
  0,                                      !- Rain Indicator
  0,                                      !- Snow Indicator
  21,                                     !- Day of Month
  4,                                      !- Month
  SummerDesignDay,                        !- Day Type
  0,                                      !- Daylight Saving Time Indicator
  Wetbulb,                                !- Humidity Indicating Type
  ,                                       !- Humidity Indicating Day Schedule Name
  DefaultMultipliers,                     !- Dry-Bulb Temperature Range Modifier Type
  ,                                       !- Dry-Bulb Temperature Range Modifier Schedule Name
  ASHRAETau,                              !- Solar Model Indicator
  ,                                       !- Beam Solar Day Schedule Name
  ,                                       !- Diffuse Solar Day Schedule Name
  0.311,                                  !- ASHRAE Taub {dimensionless}
  2.449;                                  !- ASHRAE Taud {dimensionless}

OS:SizingPeriod:DesignDay,
  {be402858-f0b3-42dc-97f1-bc9cd0a73517}, !- Handle
  Kearney Muni August .4% Condns DB=>MCWB 1, !- Name
  36.2,                                   !- Maximum Dry-Bulb Temperature {C}
  11.9,                                   !- Daily Dry-Bulb Temperature Range {deltaC}
  22.8,                                   !- Humidity Indicating Conditions at Maximum Dry-Bulb
  93767,                                  !- Barometric Pressure {Pa}
  6.3,                                    !- Wind Speed {m/s}
  190,                                    !- Wind Direction {deg}
  0,                                      !- Sky Clearness
  0,                                      !- Rain Indicator
  0,                                      !- Snow Indicator
  21,                                     !- Day of Month
  8,                                      !- Month
  SummerDesignDay,                        !- Day Type
  0,                                      !- Daylight Saving Time Indicator
  Wetbulb,                                !- Humidity Indicating Type
  ,                                       !- Humidity Indicating Day Schedule Name
  DefaultMultipliers,                     !- Dry-Bulb Temperature Range Modifier Type
  ,                                       !- Dry-Bulb Temperature Range Modifier Schedule Name
  ASHRAETau,                              !- Solar Model Indicator
  ,                                       !- Beam Solar Day Schedule Name
  ,                                       !- Diffuse Solar Day Schedule Name
  0.358,                                  !- ASHRAE Taub {dimensionless}
  2.392;                                  !- ASHRAE Taud {dimensionless}

OS:SizingPeriod:DesignDay,
  {b3a19411-79ac-4db2-89b5-2e299cae5aed}, !- Handle
  Kearney Muni August .4% Condns WB=>MCDB 1, !- Name
  32.1,                                   !- Maximum Dry-Bulb Temperature {C}
  11.9,                                   !- Daily Dry-Bulb Temperature Range {deltaC}
  25.9,                                   !- Humidity Indicating Conditions at Maximum Dry-Bulb
  93767,                                  !- Barometric Pressure {Pa}
  6.3,                                    !- Wind Speed {m/s}
  190,                                    !- Wind Direction {deg}
  0,                                      !- Sky Clearness
  0,                                      !- Rain Indicator
  0,                                      !- Snow Indicator
  21,                                     !- Day of Month
  8,                                      !- Month
  SummerDesignDay,                        !- Day Type
  0,                                      !- Daylight Saving Time Indicator
  Wetbulb,                                !- Humidity Indicating Type
  ,                                       !- Humidity Indicating Day Schedule Name
  DefaultMultipliers,                     !- Dry-Bulb Temperature Range Modifier Type
  ,                                       !- Dry-Bulb Temperature Range Modifier Schedule Name
  ASHRAETau,                              !- Solar Model Indicator
  ,                                       !- Beam Solar Day Schedule Name
  ,                                       !- Diffuse Solar Day Schedule Name
  0.358,                                  !- ASHRAE Taub {dimensionless}
  2.392;                                  !- ASHRAE Taud {dimensionless}

OS:SizingPeriod:DesignDay,
  {940d93f1-b3ae-46f6-869e-a9beb4a9522b}, !- Handle
  Kearney Muni December .4% Condns DB=>MCWB 1, !- Name
  15.9,                                   !- Maximum Dry-Bulb Temperature {C}
  11,                                     !- Daily Dry-Bulb Temperature Range {deltaC}
  7.3,                                    !- Humidity Indicating Conditions at Maximum Dry-Bulb
  93767,                                  !- Barometric Pressure {Pa}
  6.3,                                    !- Wind Speed {m/s}
  190,                                    !- Wind Direction {deg}
  0,                                      !- Sky Clearness
  0,                                      !- Rain Indicator
  0,                                      !- Snow Indicator
  21,                                     !- Day of Month
  12,                                     !- Month
  SummerDesignDay,                        !- Day Type
  0,                                      !- Daylight Saving Time Indicator
  Wetbulb,                                !- Humidity Indicating Type
  ,                                       !- Humidity Indicating Day Schedule Name
  DefaultMultipliers,                     !- Dry-Bulb Temperature Range Modifier Type
  ,                                       !- Dry-Bulb Temperature Range Modifier Schedule Name
  ASHRAETau,                              !- Solar Model Indicator
  ,                                       !- Beam Solar Day Schedule Name
  ,                                       !- Diffuse Solar Day Schedule Name
  0.284,                                  !- ASHRAE Taub {dimensionless}
  2.578;                                  !- ASHRAE Taud {dimensionless}

OS:SizingPeriod:DesignDay,
  {8288e761-81d1-4d24-9bf1-c8dd269f068e}, !- Handle
  Kearney Muni December .4% Condns WB=>MCDB 1, !- Name
  14,                                     !- Maximum Dry-Bulb Temperature {C}
  11,                                     !- Daily Dry-Bulb Temperature Range {deltaC}
  8.2,                                    !- Humidity Indicating Conditions at Maximum Dry-Bulb
  93767,                                  !- Barometric Pressure {Pa}
  6.3,                                    !- Wind Speed {m/s}
  190,                                    !- Wind Direction {deg}
  0,                                      !- Sky Clearness
  0,                                      !- Rain Indicator
  0,                                      !- Snow Indicator
  21,                                     !- Day of Month
  12,                                     !- Month
  SummerDesignDay,                        !- Day Type
  0,                                      !- Daylight Saving Time Indicator
  Wetbulb,                                !- Humidity Indicating Type
  ,                                       !- Humidity Indicating Day Schedule Name
  DefaultMultipliers,                     !- Dry-Bulb Temperature Range Modifier Type
  ,                                       !- Dry-Bulb Temperature Range Modifier Schedule Name
  ASHRAETau,                              !- Solar Model Indicator
  ,                                       !- Beam Solar Day Schedule Name
  ,                                       !- Diffuse Solar Day Schedule Name
  0.284,                                  !- ASHRAE Taub {dimensionless}
  2.578;                                  !- ASHRAE Taud {dimensionless}

OS:SizingPeriod:DesignDay,
  {7f590df6-bfb7-4670-be54-7d1a974d4d34}, !- Handle
  Kearney Muni February .4% Condns DB=>MCWB 1, !- Name
  19.6,                                   !- Maximum Dry-Bulb Temperature {C}
  11.5,                                   !- Daily Dry-Bulb Temperature Range {deltaC}
  9,                                      !- Humidity Indicating Conditions at Maximum Dry-Bulb
  93767,                                  !- Barometric Pressure {Pa}
  6.3,                                    !- Wind Speed {m/s}
  190,                                    !- Wind Direction {deg}
  0,                                      !- Sky Clearness
  0,                                      !- Rain Indicator
  0,                                      !- Snow Indicator
  21,                                     !- Day of Month
  2,                                      !- Month
  SummerDesignDay,                        !- Day Type
  0,                                      !- Daylight Saving Time Indicator
  Wetbulb,                                !- Humidity Indicating Type
  ,                                       !- Humidity Indicating Day Schedule Name
  DefaultMultipliers,                     !- Dry-Bulb Temperature Range Modifier Type