
OS:Version,
  {bc78937f-1a33-4f2e-96a0-ed4a380b8088}, !- Handle
  3.6.1;                                  !- Version Identifier

OS:Facility,
  {3e5c4816-5523-462d-8e30-e24ebb816c76}; !- Handle

OS:Site,
  {5d89b576-8f86-4e51-9021-659bb3231de9}, !- Handle
  Chicago Ohare Intl Ap,                  !- Name
  41.98,                                  !- Latitude {deg}
  -87.92,                                 !- Longitude {deg}
  -6,                                     !- Time Zone {hr}
  201,                                    !- Elevation {m}
  City;                                   !- Terrain

OS:SimulationControl,
  {b0c00ad9-3681-46b4-8459-2096750769b4}, !- Handle
  ,                                       !- Do Zone Sizing Calculation
  ,                                       !- Do System Sizing Calculation
  ,                                       !- Do Plant Sizing Calculation
  No,                                     !- Run Simulation for Sizing Periods
  Yes,                                    !- Run Simulation for Weather File Run Periods
  ,                                       !- Loads Convergence Tolerance Value {W}
  ,                                       !- Temperature Convergence Tolerance Value {deltaC}
  ,                                       !- Solar Distribution
  ,                                       !- Maximum Number of Warmup Days
  ,                                       !- Minimum Number of Warmup Days
  No,                                     !- Do HVAC Sizing Simulation for Sizing Periods
  1;                                      !- Maximum Number of HVAC Sizing Simulation Passes

OS:Sizing:Parameters,
  {648cad9e-d2a6-4208-b200-a97ca653113a}, !- Handle
  1.25,                                   !- Heating Sizing Factor
  1.15;                                   !- Cooling Sizing Factor

OS:Timestep,
  {35b50e25-2d93-4c3a-a415-736cc2f1abac}, !- Handle
  4;                                      !- Number of Timesteps per Hour

OS:ShadowCalculation,
  {dc5af09b-c9aa-46a3-b8c1-cca613c57000}, !- Handle
  PolygonClipping,                        !- Shading Calculation Method
  ,                                       !- Shading Calculation Update Frequency Method
  20,                                     !- Shading Calculation Update Frequency
  15000,                                  !- Maximum Figures in Shadow Overlap Calculations
  ,                                       !- Polygon Clipping Algorithm
  512,                                    !- Pixel Counting Resolution
  ,                                       !- Sky Diffuse Modeling Algorithm
  No,                                     !- Output External Shading Calculation Results
  No,                                     !- Disable Self-Shading Within Shading Zone Groups
  No;                                     !- Disable Self-Shading From Shading Zone Groups to Other Zones

OS:HeatBalanceAlgorithm,
  {4612ed4a-7ff5-499b-9e51-e879b003060b}, !- Handle
  ConductionTransferFunction,             !- Algorithm
  200;                                    !- Surface Temperature Upper Limit {C}

OS:RunPeriod,
  {daab7fa9-859e-4b49-9ad4-2896b28dca73}, !- Handle
  Run Period 1,                           !- Name
  1,                                      !- Begin Month
  1,                                      !- Begin Day of Month
  12,                                     !- End Month
  31,                                     !- End Day of Month
  ,                                       !- Use Weather File Holidays and Special Days
  ,                                       !- Use Weather File Daylight Saving Period
  ,                                       !- Apply Weekend Holiday Rule
  ,                                       !- Use Weather File Rain Indicators
  ,                                       !- Use Weather File Snow Indicators
  ;                                       !- Number of Times Runperiod to be Repeated

OS:LifeCycleCost:Parameters,
  {3fd9da6f-8232-422d-89c2-9d05add1aec3}, !- Handle
  ,                                       !- Analysis Type
  ,                                       !- Discounting Convention
  ,                                       !- Inflation Approach
  ,                                       !- Real Discount Rate
  ,                                       !- Nominal Discount Rate
  ,                                       !- Inflation
  ,                                       !- Base Date Month
  ,                                       !- Base Date Year
  ,                                       !- Service Date Month
  ,                                       !- Service Date Year
  ;                                       !- Length of Study Period in Years

OS:Site:WaterMainsTemperature,
  {e4c3aa12-f4f3-401d-91ee-9e1ef00810c0}, !- Handle
  Correlation,                            !- Calculation Method
  ,                                       !- Temperature Schedule Name
  24.4075,                                !- Annual Average Outdoor Air Temperature {C}
  9.68;                                   !- Maximum Difference In Monthly Average Outdoor Air Temperatures {deltaC}

OS:ClimateZones,
  {e5acc8a2-108e-42d6-a294-3ed73ac03bef}, !- Handle
  ASHRAE,                                 !- Climate Zone Institution Name 1
  ANSI/ASHRAE Standard 169,               !- Climate Zone Document Name 1
  2006,                                   !- Climate Zone Document Year 1
  ASHRAE 169-2013-2A,                     !- Climate Zone Value 1
  CEC,                                    !- Climate Zone Institution Name 2
  California Climate Zone Descriptions,   !- Climate Zone Document Name 2
  1995,                                   !- Climate Zone Document Year 2
  ;                                       !- Climate Zone Value 2

OS:Building,
  {7d7ce8aa-0699-4993-8c9e-5aab9c8c59fb}, !- Handle
  ComStock 90.1-2007|Warehouse,           !- Name
  ,                                       !- Building Sector Type
  ,                                       !- North Axis {deg}
  ,                                       !- Nominal Floor to Floor Height {m}
  ,                                       !- Space Type Name
  {86015055-34b0-43cd-bbfe-beb9c848a28a}, !- Default Construction Set Name
  {84285db0-b825-4d11-a3a0-ea6d16b89df5}, !- Default Schedule Set Name
  ,                                       !- Standards Number of Stories
  ,                                       !- Standards Number of Above Ground Stories
  ,                                       !- Standards Template
  Warehouse;                              !- Standards Building Type

OS:AdditionalProperties,
  {9d944a36-d487-455a-ab46-f317801c7742}, !- Handle
  {7d7ce8aa-0699-4993-8c9e-5aab9c8c59fb}, !- Object Name
  grid_region,                            !- Feature Name 1
  String,                                 !- Feature Data Type 1
  FRCCc,                                  !- Feature Value 1
  hvac_system_type,                       !- Feature Name 2
  String,                                 !- Feature Data Type 2
  Gas unit heaters,                       !- Feature Value 2
  wall_as_constructed_template,           !- Feature Name 3
  String,                                 !- Feature Data Type 3
  ComStock 90.1-2007,                     !- Feature Value 3
  wall_template,                          !- Feature Name 4
  String,                                 !- Feature Data Type 4
  ComStock 90.1-2007,                     !- Feature Value 4
  roof_as_constructed_template,           !- Feature Name 5
  String,                                 !- Feature Data Type 5
  ComStock 90.1-2007,                     !- Feature Value 5
  roof_template,                          !- Feature Name 6
  String,                                 !- Feature Data Type 6
  ComStock 90.1-2007,                     !- Feature Value 6
  exterior_lighting_as_constructed_template, !- Feature Name 7
  String,                                 !- Feature Data Type 7
  ComStock 90.1-2007,                     !- Feature Value 7
  exterior_lighting_template,             !- Feature Name 8
  String,                                 !- Feature Data Type 8
  ComStock 90.1-2007,                     !- Feature Value 8
  interior_equipment_as_constructed_template, !- Feature Name 9
  String,                                 !- Feature Data Type 9
  ComStock 90.1-2007,                     !- Feature Value 9
  interior_equipment_template,            !- Feature Name 10
  String,                                 !- Feature Data Type 10
  ComStock 90.1-2007,                     !- Feature Value 10
  service_water_heating_as_constructed_template, !- Feature Name 11
  String,                                 !- Feature Data Type 11
  ComStock 90.1-2007,                     !- Feature Value 11
  service_water_heating_template,         !- Feature Name 12
  String,                                 !- Feature Data Type 12
  ComStock 90.1-2007,                     !- Feature Value 12
  hvac_as_constructed_template,           !- Feature Name 13
  String,                                 !- Feature Data Type 13
  ComStock 90.1-2007,                     !- Feature Value 13
  hvac_template,                          !- Feature Name 14
  String,                                 !- Feature Data Type 14
  ComStock 90.1-2007;                     !- Feature Value 14

OS:SpaceType,
  {59f346cd-5a85-4ac5-be58-1f8d739c59c6}, !- Handle
  Warehouse Office - ComStock 90.1-2007,  !- Name
  ,                                       !- Default Construction Set Name
  {711b683d-e805-47bd-8ce7-2fca992d8740}, !- Default Schedule Set Name
  {b9931c41-10e2-4c3a-a609-bccdc2b56138}, !- Group Rendering Name
  {ce2a696c-2c24-4e07-ae2b-607d117976d8}, !- Design Specification Outdoor Air Object Name
  ,                                       !- Standards Template
  Warehouse,                              !- Standards Building Type
  Office;                                 !- Standards Space Type

OS:Rendering:Color,
  {b9931c41-10e2-4c3a-a609-bccdc2b56138}, !- Handle
  Warehouse Office,                       !- Name
  120,                                    !- Rendering Red Value
  230,                                    !- Rendering Green Value
  199;                                    !- Rendering Blue Value

OS:SpaceType,
  {eddd8b12-846d-45d9-a581-604e99d37014}, !- Handle
  Warehouse Fine - ComStock 90.1-2007,    !- Name
  ,                                       !- Default Construction Set Name
  {793c6f9c-4503-4bca-97af-371ab84f1b83}, !- Default Schedule Set Name
  {07ff1bb7-4f87-46e2-a81e-0f793c31f1cb}, !- Group Rendering Name
  {5703618d-afc3-4f66-afc3-df0ce4221ded}, !- Design Specification Outdoor Air Object Name
  ,                                       !- Standards Template
  Warehouse,                              !- Standards Building Type
  Fine;                                   !- Standards Space Type

OS:Rendering:Color,
  {07ff1bb7-4f87-46e2-a81e-0f793c31f1cb}, !- Handle
  Warehouse Fine,                         !- Name
  120,                                    !- Rendering Red Value
  149,                                    !- Rendering Green Value
  230;                                    !- Rendering Blue Value

OS:SpaceType,
  {170eeb84-6a67-4dc2-84db-f455b6f7b976}, !- Handle
  Warehouse Bulk - ComStock 90.1-2007,    !- Name
  ,                                       !- Default Construction Set Name
  {e2341273-b219-4c3a-ad5b-4fdc8bb74ea6}, !- Default Schedule Set Name
  {35e52495-2342-42fc-9f19-ad240992b9ca}, !- Group Rendering Name
  {90b19f6e-7804-4e81-957b-1a226183a82d}, !- Design Specification Outdoor Air Object Name
  ,                                       !- Standards Template
  Warehouse,                              !- Standards Building Type
  Bulk;                                   !- Standards Space Type

OS:Rendering:Color,
  {35e52495-2342-42fc-9f19-ad240992b9ca}, !- Handle
  Warehouse Bulk,                         !- Name
  41,                                     !- Rendering Red Value
  31,                                     !- Rendering Green Value
  169;                                    !- Rendering Blue Value

OS:BuildingStory,
  {c4f1e44a-71c5-46c1-aaf7-8344a307be44}, !- Handle
  Story Ground,                           !- Name
  0,                                      !- Nominal Z Coordinate {m}
  8.5344,                                 !- Nominal Floor to Floor Height {m}
  ,                                       !- Default Construction Set Name
  ,                                       !- Default Schedule Set Name
  ;                                       !- Group Rendering Name

OS:Space,
  {824ad0a6-be50-45af-9e2d-637d29965705}, !- Handle
  Warehouse Bulk A end_a - Story Ground,  !- Name
  {170eeb84-6a67-4dc2-84db-f455b6f7b976}, !- Space Type Name
  ,                                       !- Default Construction Set Name
  ,                                       !- Default Schedule Set Name
  -0,                                     !- Direction of Relative North {deg}
  -40.7010728605525,                      !- X Origin {m}
  -20.3505364302762,                      !- Y Origin {m}
  0,                                      !- Z Origin {m}
  {c4f1e44a-71c5-46c1-aaf7-8344a307be44}, !- Building Story Name
  {7716b50d-fbb8-4ba3-9b51-96cf04111a69}; !- Thermal Zone Name

OS:Surface,
  {dcf3533b-aad6-46c8-84a9-493b3b07cbc2}, !- Handle
  Surface 1,                              !- Name
  Floor,                                  !- Surface Type
  {743b4257-1530-49d4-8212-9fc96e5c816b}, !- Construction Name
  {824ad0a6-be50-45af-9e2d-637d29965705}, !- Space Name
  GroundFCfactorMethod,                   !- Outside Boundary Condition
  ,                                       !- Outside Boundary Condition Object
  NoSun,                                  !- Sun Exposure
  NoWind,                                 !- Wind Exposure
  ,                                       !- View Factor to Ground
  ,                                       !- Number of Vertices
  -3.5527136788005e-14, 2.8421709430404e-14, 0, !- X,Y,Z Vertex 1 {m}
  -3.5527136788005e-14, 4.57200000000003, 0, !- X,Y,Z Vertex 2 {m}
  4.57199999999997, 4.57200000000003, 0,  !- X,Y,Z Vertex 3 {m}
  4.57199999999997, 2.8421709430404e-14, 0; !- X,Y,Z Vertex 4 {m}

OS:Surface,
  {29783247-eb0a-4d87-8841-21be2bf8aba0}, !- Handle
  Surface 2,                              !- Name
  Wall,                                   !- Surface Type
  ,                                       !- Construction Name
  {824ad0a6-be50-45af-9e2d-637d29965705}, !- Space Name
  Outdoors,                               !- Outside Boundary Condition
  ,                                       !- Outside Boundary Condition Object
  SunExposed,                             !- Sun Exposure
  WindExposed,                            !- Wind Exposure
  ,                                       !- View Factor to Ground
  ,                                       !- Number of Vertices
  -3.5527136788005e-14, 4.57200000000003, 8.5344, !- X,Y,Z Vertex 1 {m}
  -3.5527136788005e-14, 4.57200000000003, 0, !- X,Y,Z Vertex 2 {m}
  -3.5527136788005e-14, 2.8421709430404e-14, 0, !- X,Y,Z Vertex 3 {m}
  -3.5527136788005e-14, 2.8421709430404e-14, 8.5344; !- X,Y,Z Vertex 4 {m}

OS:Surface,
  {6c6ae932-49b0-4e5c-8927-142f62a75fff}, !- Handle
  Surface 3,                              !- Name
  Wall,                                   !- Surface Type
  ,                                       !- Construction Name
  {824ad0a6-be50-45af-9e2d-637d29965705}, !- Space Name
  Surface,                                !- Outside Boundary Condition
  {37f5302c-7a24-49a3-9f4d-c7696f4923e3}, !- Outside Boundary Condition Object
  NoSun,                                  !- Sun Exposure
  NoWind,                                 !- Wind Exposure
  ,                                       !- View Factor to Ground
  ,                                       !- Number of Vertices
  4.57199999999997, 4.57200000000003, 8.5344, !- X,Y,Z Vertex 1 {m}
  4.57199999999997, 4.57200000000003, 0,  !- X,Y,Z Vertex 2 {m}
  -3.5527136788005e-14, 4.57200000000003, 0, !- X,Y,Z Vertex 3 {m}
  -3.5527136788005e-14, 4.57200000000003, 8.5344; !- X,Y,Z Vertex 4 {m}

OS:Surface,
  {a805b775-93b5-42f9-991b-738a567ce3c3}, !- Handle
  Surface 4,                              !- Name
  Wall,                                   !- Surface Type
  ,                                       !- Construction Name
  {824ad0a6-be50-45af-9e2d-637d29965705}, !- Space Name
  Surface,                                !- Outside Boundary Condition
  {5121a43d-8999-4cf0-a898-bb191eae4729}, !- Outside Boundary Condition Object
  NoSun,                                  !- Sun Exposure
  NoWind,                                 !- Wind Exposure
  ,                                       !- View Factor to Ground
  ,                                       !- Number of Vertices
  4.57199999999997, 2.8421709430404e-14, 8.5344, !- X,Y,Z Vertex 1 {m}
  4.57199999999997, 2.8421709430404e-14, 0, !- X,Y,Z Vertex 2 {m}
  4.57199999999997, 4.57200000000003, 0,  !- X,Y,Z Vertex 3 {m}
  4.57199999999997, 4.57200000000003, 8.5344; !- X,Y,Z Vertex 4 {m}

OS:Surface,
  {6b4dbdfd-7265-4c5f-8be2-80c14b4554c9}, !- Handle
  Surface 5,                              !- Name
  Wall,                                   !- Surface Type
  ,                                       !- Construction Name
  {824ad0a6-be50-45af-9e2d-637d29965705}, !- Space Name
  Outdoors,                               !- Outside Boundary Condition
  ,                                       !- Outside Boundary Condition Object
  SunExposed,                             !- Sun Exposure
  WindExposed,                            !- Wind Exposure
  ,                                       !- View Factor to Ground
  ,                                       !- Number of Vertices
  -3.5527136788005e-14, 2.8421709430404e-14, 8.5344, !- X,Y,Z Vertex 1 {m}
  -3.5527136788005e-14, 2.8421709430404e-14, 0, !- X,Y,Z Vertex 2 {m}
  4.57199999999997, 2.8421709430404e-14, 0, !- X,Y,Z Vertex 3 {m}
  4.57199999999997, 2.8421709430404e-14, 8.5344; !- X,Y,Z Vertex 4 {m}

OS:Surface,
  {9a602fc7-9917-4b10-ad31-5e05dd29b887}, !- Handle
  Surface 6,                              !- Name
  RoofCeiling,                            !- Surface Type
  ,                                       !- Construction Name
  {824ad0a6-be50-45af-9e2d-637d29965705}, !- Space Name
  Outdoors,                               !- Outside Boundary Condition
  ,                                       !- Outside Boundary Condition Object
  SunExposed,                             !- Sun Exposure
  WindExposed,                            !- Wind Exposure
  ,                                       !- View Factor to Ground
  ,                                       !- Number of Vertices
  4.57199999999997, 2.8421709430404e-14, 8.5344, !- X,Y,Z Vertex 1 {m}
  4.57199999999997, 4.57200000000003, 8.5344, !- X,Y,Z Vertex 2 {m}
  -3.5527136788005e-14, 4.57200000000003, 8.5344, !- X,Y,Z Vertex 3 {m}
  -3.5527136788005e-14, 2.8421709430404e-14, 8.5344; !- X,Y,Z Vertex 4 {m}

OS:ThermalZone,
  {7716b50d-fbb8-4ba3-9b51-96cf04111a69}, !- Handle
  Zone Warehouse Bulk A end_a - Story Ground, !- Name
  1,                                      !- Multiplier
  ,                                       !- Ceiling Height {m}
  ,                                       !- Volume {m3}
  ,                                       !- Floor Area {m2}
  ,                                       !- Zone Inside Convection Algorithm
  ,                                       !- Zone Outside Convection Algorithm
  ,                                       !- Zone Conditioning Equipment List Name
  {885c315f-8aa9-4ae4-a6be-19df62d7ede0}, !- Zone Air Inlet Port List
  {5743684c-833a-460d-9ae2-8c354f559be7}, !- Zone Air Exhaust Port List
  {bd0fb36f-7059-4c9d-b650-0767001e3a71}, !- Zone Air Node Name
  {03ba2ab0-bf9e-499f-842c-85e5d2bcc112}, !- Zone Return Air Port List
  ,                                       !- Primary Daylighting Control Name
  ,                                       !- Fraction of Zone Controlled by Primary Daylighting Control
  ,                                       !- Secondary Daylighting Control Name
  ,                                       !- Fraction of Zone Controlled by Secondary Daylighting Control
  ,                                       !- Illuminance Map Name
  ,                                       !- Group Rendering Name
  {dc5c952f-8150-4161-bb54-939ee99ce389}, !- Thermostat Name
  No;                                     !- Use Ideal Air Loads

OS:Node,
  {c3fb19a5-bd50-4311-b6c4-95fb9dfa385e}, !- Handle
  Zone Warehouse Bulk A end_a - Story Ground Zone Air Node, !- Name
  {bd0fb36f-7059-4c9d-b650-0767001e3a71}, !- Inlet Port
  ;                                       !- Outlet Port

OS:Connection,
  {bd0fb36f-7059-4c9d-b650-0767001e3a71}, !- Handle
  {7716b50d-fbb8-4ba3-9b51-96cf04111a69}, !- Source Object
  11,                                     !- Outlet Port
  {c3fb19a5-bd50-4311-b6c4-95fb9dfa385e}, !- Target Object
  2;                                      !- Inlet Port

OS:PortList,
  {885c315f-8aa9-4ae4-a6be-19df62d7ede0}, !- Handle
  {7716b50d-fbb8-4ba3-9b51-96cf04111a69}, !- HVAC Component
  {74b7bb26-eedc-49c5-893c-51dee6fde4e3}; !- Port 1

OS:PortList,
  {5743684c-833a-460d-9ae2-8c354f559be7}, !- Handle
  {7716b50d-fbb8-4ba3-9b51-96cf04111a69}, !- HVAC Component
  {6510d0b9-7a12-457b-b314-7d7119b06079}; !- Port 1

OS:PortList,
  {03ba2ab0-bf9e-499f-842c-85e5d2bcc112}, !- Handle
  {7716b50d-fbb8-4ba3-9b51-96cf04111a69}; !- HVAC Component

OS:Sizing:Zone,
  {ec887556-cbfd-48b8-b2f3-5245130cfa1d}, !- Handle
  {7716b50d-fbb8-4ba3-9b51-96cf04111a69}, !- Zone or ZoneList Name
  SupplyAirTemperature,                   !- Zone Cooling Design Supply Air Temperature Input Method
  14,                                     !- Zone Cooling Design Supply Air Temperature {C}
  11.11,                                  !- Zone Cooling Design Supply Air Temperature Difference {deltaC}
  SupplyAirTemperature,                   !- Zone Heating Design Supply Air Temperature Input Method
  50.0000000000001,                       !- Zone Heating Design Supply Air Temperature {C}
  11.11,                                  !- Zone Heating Design Supply Air Temperature Difference {deltaC}
  0.0085,                                 !- Zone Cooling Design Supply Air Humidity Ratio {kg-H2O/kg-air}
  0.008,                                  !- Zone Heating Design Supply Air Humidity Ratio {kg-H2O/kg-air}
  ,                                       !- Zone Heating Sizing Factor
  ,                                       !- Zone Cooling Sizing Factor
  DesignDay,                              !- Cooling Design Air Flow Method
  ,                                       !- Cooling Design Air Flow Rate {m3/s}
  ,                                       !- Cooling Minimum Air Flow per Zone Floor Area {m3/s-m2}
  ,                                       !- Cooling Minimum Air Flow {m3/s}
  ,                                       !- Cooling Minimum Air Flow Fraction
  DesignDay,                              !- Heating Design Air Flow Method
  ,                                       !- Heating Design Air Flow Rate {m3/s}
  ,                                       !- Heating Maximum Air Flow per Zone Floor Area {m3/s-m2}
  ,                                       !- Heating Maximum Air Flow {m3/s}
  ,                                       !- Heating Maximum Air Flow Fraction
  No,                                     !- Account for Dedicated Outdoor Air System
  NeutralSupplyAir,                       !- Dedicated Outdoor Air System Control Strategy
  autosize,                               !- Dedicated Outdoor Air Low Setpoint Temperature for Design {C}
  autosize,                               !- Dedicated Outdoor Air High Setpoint Temperature for Design {C}
  Sensible Load Only No Latent Load,      !- Zone Load Sizing Method
  HumidityRatioDifference,                !- Zone Latent Cooling Design Supply Air Humidity Ratio Input Method
  ,                                       !- Zone Dehumidification Design Supply Air Humidity Ratio {kgWater/kgDryAir}
  0.005,                                  !- Zone Cooling Design Supply Air Humidity Ratio Difference {kgWater/kgDryAir}
  HumidityRatioDifference,                !- Zone Latent Heating Design Supply Air Humidity Ratio Input Method
  ,                                       !- Zone Humidification Design Supply Air Humidity Ratio {kgWater/kgDryAir}
  0.005;                                  !- Zone Humidification Design Supply Air Humidity Ratio Difference {kgWater/kgDryAir}

OS:ZoneHVAC:EquipmentList,
  {6ce9a48b-60fe-4165-863b-25329ef833f5}, !- Handle
  Zone Warehouse Bulk A end_a - Story Ground Zone HVAC Equipment List, !- Name
  {7716b50d-fbb8-4ba3-9b51-96cf04111a69}, !- Thermal Zone
  ,                                       !- Load Distribution Scheme
  {116f6ad1-7d57-4fd3-b578-91a35d53d165}, !- Zone Equipment 1
  1,                                      !- Zone Equipment Cooling Sequence 1
  1,                                      !- Zone Equipment Heating or No-Load Sequence 1
  ,                                       !- Zone Equipment Sequential Cooling Fraction Schedule Name 1
  ;                                       !- Zone Equipment Sequential Heating Fraction Schedule Name 1

OS:Space,
  {51ae2a7d-bc27-47aa-ba92-857a27ff6b1e}, !- Handle
  Warehouse Bulk B end_a - Story Ground,  !- Name
  {170eeb84-6a67-4dc2-84db-f455b6f7b976}, !- Space Type Name
  ,                                       !- Default Construction Set Name
  ,                                       !- Default Schedule Set Name
  -0,                                     !- Direction of Relative North {deg}
  -40.7010728605525,                      !- X Origin {m}
  -15.7785364302762,                      !- Y Origin {m}
  0,                                      !- Z Origin {m}
  {c4f1e44a-71c5-46c1-aaf7-8344a307be44}, !- Building Story Name
  {2086e8ed-a989-4293-a59b-fe444a0c7ed2}; !- Thermal Zone Name

OS:Surface,
  {dfc233d8-baf2-4321-b0ec-913b9bdc2c35}, !- Handle
  Surface 7,                              !- Name
  Floor,                                  !- Surface Type
  {0f1701f4-21ba-4f61-8ba8-4dff6a5ea9be}, !- Construction Name
  {51ae2a7d-bc27-47aa-ba92-857a27ff6b1e}, !- Space Name
  GroundFCfactorMethod,                   !- Outside Boundary Condition
  ,                                       !- Outside Boundary Condition Object
  NoSun,                                  !- Sun Exposure
  NoWind,                                 !- Wind Exposure
  ,                                       !- View Factor to Ground
  ,                                       !- Number of Vertices
  -3.5527136788005e-14, 3.01980662698043e-14, 0, !- X,Y,Z Vertex 1 {m}
  -3.5527136788005e-14, 31.5570728605524, 0, !- X,Y,Z Vertex 2 {m}
  4.57199999999997, 31.5570728605524, 0,  !- X,Y,Z Vertex 3 {m}
  4.57199999999997, 3.01980662698043e-14, 0; !- X,Y,Z Vertex 4 {m}

OS:Surface,
  {a5ca8ed6-d97a-45b1-aa15-2b8c9be0c492}, !- Handle
  Surface 8,                              !- Name
  Wall,                                   !- Surface Type
  ,                                       !- Construction Name
  {51ae2a7d-bc27-47aa-ba92-857a27ff6b1e}, !- Space Name
  Outdoors,                               !- Outside Boundary Condition
  ,                                       !- Outside Boundary Condition Object
  SunExposed,                             !- Sun Exposure
  WindExposed,                            !- Wind Exposure
  ,                                       !- View Factor to Ground
  ,                                       !- Number of Vertices
  -3.5527136788005e-14, 31.5570728605524, 8.5344, !- X,Y,Z Vertex 1 {m}
  -3.5527136788005e-14, 31.5570728605524, 0, !- X,Y,Z Vertex 2 {m}
  -3.5527136788005e-14, 3.01980662698043e-14, 0, !- X,Y,Z Vertex 3 {m}
  -3.5527136788005e-14, 3.01980662698043e-14, 8.5344; !- X,Y,Z Vertex 4 {m}

OS:Surface,
  {dac3d861-dac8-44cf-984f-9ad76ba986aa}, !- Handle
  Surface 9,                              !- Name
  Wall,                                   !- Surface Type
  ,                                       !- Construction Name
  {51ae2a7d-bc27-47aa-ba92-857a27ff6b1e}, !- Space Name
  Surface,                                !- Outside Boundary Condition
  {d3e255c7-8bf1-431a-bd35-019e2ad70620}, !- Outside Boundary Condition Object
  NoSun,                                  !- Sun Exposure
  NoWind,                                 !- Wind Exposure
  ,                                       !- View Factor to Ground
  ,                                       !- Number of Vertices
  4.57199999999997, 31.5570728605524, 8.5344, !- X,Y,Z Vertex 1 {m}
  4.57199999999997, 31.5570728605524, 0,  !- X,Y,Z Vertex 2 {m}
  -3.5527136788005e-14, 31.5570728605524, 0, !- X,Y,Z Vertex 3 {m}
  -3.5527136788005e-14, 31.5570728605524, 8.5344; !- X,Y,Z Vertex 4 {m}

OS:Surface,
  {17f06981-651e-4388-a763-35a21c490a9f}, !- Handle
  Surface 10,                             !- Name
  Wall,                                   !- Surface Type
  ,                                       !- Construction Name
  {51ae2a7d-bc27-47aa-ba92-857a27ff6b1e}, !- Space Name
  Surface,                                !- Outside Boundary Condition
  {194e075e-2c83-4ada-b220-c2ddb81da1c5}, !- Outside Boundary Condition Object
  NoSun,                                  !- Sun Exposure
  NoWind,                                 !- Wind Exposure
  ,                                       !- View Factor to Ground
  ,                                       !- Number of Vertices
  4.57199999999997, 3.01980662698043e-14, 8.5344, !- X,Y,Z Vertex 1 {m}
  4.57199999999997, 3.01980662698043e-14, 0, !- X,Y,Z Vertex 2 {m}