
OS:Version,
  {de24c3a4-baa8-494d-ab86-2d91aff58c62}, !- Handle
  3.7.0;                                  !- Version Identifier

OS:RunPeriodControl:DaylightSavingTime,
  {4459d710-506c-46ee-b03b-e4c84a12b977}, !- Handle
  2nd Sunday in March,                    !- Start Date
  1st Sunday in November;                 !- End Date

OS:YearDescription,
  {a1d7e5d8-9a8b-4760-8cdd-a573657c41cd}, !- Handle
  2015,                                   !- Calendar Year
  ,                                       !- Day of Week for Start Day
  ;                                       !- Is Leap Year

OS:Timestep,
  {d0f55be9-c489-4d84-ac43-de6d6617ee9a}, !- Handle
  4;                                      !- Number of Timesteps per Hour

OS:RunPeriod,
  {f776052f-eb65-4850-bfa5-cd12d29fa5a5}, !- Handle
  Run Period 1,                           !- Name
  1,                                      !- Begin Month
  1,                                      !- Begin Day of Month
  12,                                     !- End Month
  30,                                     !- End Day of Month
  ,                                       !- Use Weather File Holidays and Special Days
  ,                                       !- Use Weather File Daylight Saving Period
  ,                                       !- Apply Weekend Holiday Rule
  ,                                       !- Use Weather File Rain Indicators
  ,                                       !- Use Weather File Snow Indicators
  ;                                       !- Number of Times Runperiod to be Repeated

OS:Site,
  {6876ace3-d650-44cd-888b-bf431d69f477}, !- Handle
  CA_LOS-ANGELES-DOWNTOWN-_-_USA,         !- Name
  34.03,                                  !- Latitude {deg}
  -118.3,                                 !- Longitude {deg}
  -8,                                     !- Time Zone {hr}
  56,                                     !- Elevation {m}
  City;                                   !- Terrain

OS:Site:WaterMainsTemperature,
  {deac5f3c-561b-473b-9a51-47d6ae3839e6}, !- Handle
  Correlation,                            !- Calculation Method
  ,                                       !- Temperature Schedule Name
  17.9083333333333,                       !- Annual Average Outdoor Air Temperature {C}
  10.6;                                   !- Maximum Difference In Monthly Average Outdoor Air Temperatures {deltaC}

OS:SizingPeriod:DesignDay,
  {dec3d1ae-ba9a-49e5-bfad-3c1e0688e64a}, !- Handle
  CA_LOS-ANGELES-DOWNTOWN- Ann Clg .4% Condns DB=>MWB 1, !- Name
  32.8,                                   !- Maximum Dry-Bulb Temperature {C}
  9.7,                                    !- Daily Dry-Bulb Temperature Range {deltaC}
  100654,                                 !- Barometric Pressure {Pa}
  1.5,                                    !- Wind Speed {m/s}
  0,                                      !- Wind Direction {deg}
  0,                                      !- Sky Clearness
  No,                                     !- Rain Indicator
  No,                                     !- Snow Indicator
  21,                                     !- Day of Month
  8,                                      !- Month
  SummerDesignDay,                        !- Day Type
  No,                                     !- Daylight Saving Time Indicator
  Wetbulb,                                !- Humidity Condition Type
  ,                                       !- Humidity Condition Day Schedule Name
  18.9,                                   !- Wetbulb or DewPoint at Maximum Dry-Bulb {C}
  ,                                       !- Humidity Ratio at Maximum Dry-Bulb {kgWater/kgDryAir}
  ,                                       !- Enthalpy at Maximum Dry-Bulb {J/kg}
  DefaultMultipliers,                     !- Dry-Bulb Temperature Range Modifier Type
  ,                                       !- Dry-Bulb Temperature Range Modifier Day Schedule Name
  ASHRAETau,                              !- Solar Model Indicator
  ,                                       !- Beam Solar Day Schedule Name
  ,                                       !- Diffuse Solar Day Schedule Name
  0.361,                                  !- ASHRAE Clear Sky Optical Depth for Beam Irradiance {dimensionless}
  2.436;                                  !- ASHRAE Clear Sky Optical Depth for Diffuse Irradiance {dimensionless}

OS:SizingPeriod:DesignDay,
  {a5e7e745-62d3-4142-befb-c557e3f51a00}, !- Handle
  CA_LOS-ANGELES-DOWNTOWN- Ann Clg .4% Condns WB=>MDB 1, !- Name
  29.2,                                   !- Maximum Dry-Bulb Temperature {C}
  9.7,                                    !- Daily Dry-Bulb Temperature Range {deltaC}
  100654,                                 !- Barometric Pressure {Pa}
  1.5,                                    !- Wind Speed {m/s}
  0,                                      !- Wind Direction {deg}
  0,                                      !- Sky Clearness
  No,                                     !- Rain Indicator
  No,                                     !- Snow Indicator
  21,                                     !- Day of Month
  8,                                      !- Month
  SummerDesignDay,                        !- Day Type
  No,                                     !- Daylight Saving Time Indicator
  Wetbulb,                                !- Humidity Condition Type
  ,                                       !- Humidity Condition Day Schedule Name
  22,                                     !- Wetbulb or DewPoint at Maximum Dry-Bulb {C}
  ,                                       !- Humidity Ratio at Maximum Dry-Bulb {kgWater/kgDryAir}
  ,                                       !- Enthalpy at Maximum Dry-Bulb {J/kg}
  DefaultMultipliers,                     !- Dry-Bulb Temperature Range Modifier Type
  ,                                       !- Dry-Bulb Temperature Range Modifier Day Schedule Name
  ASHRAETau,                              !- Solar Model Indicator
  ,                                       !- Beam Solar Day Schedule Name
  ,                                       !- Diffuse Solar Day Schedule Name
  0.361,                                  !- ASHRAE Clear Sky Optical Depth for Beam Irradiance {dimensionless}
  2.436;                                  !- ASHRAE Clear Sky Optical Depth for Diffuse Irradiance {dimensionless}

OS:SizingPeriod:DesignDay,
  {ed3ea7ed-3f7a-4500-ae89-1cd084e2f822}, !- Handle
  CA_LOS-ANGELES-DOWNTOWN- Ann Htg 99.6% Condns DB 1, !- Name
  6.2,                                    !- Maximum Dry-Bulb Temperature {C}
  0,                                      !- Daily Dry-Bulb Temperature Range {deltaC}
  100654,                                 !- Barometric Pressure {Pa}
  0.2,                                    !- Wind Speed {m/s}
  0,                                      !- Wind Direction {deg}
  0,                                      !- Sky Clearness
  No,                                     !- Rain Indicator
  No,                                     !- Snow Indicator
  21,                                     !- Day of Month
  12,                                     !- Month
  WinterDesignDay,                        !- Day Type
  No,                                     !- Daylight Saving Time Indicator
  Wetbulb,                                !- Humidity Condition Type
  ,                                       !- Humidity Condition Day Schedule Name
  6.2,                                    !- Wetbulb or DewPoint at Maximum Dry-Bulb {C}
  ,                                       !- Humidity Ratio at Maximum Dry-Bulb {kgWater/kgDryAir}
  ,                                       !- Enthalpy at Maximum Dry-Bulb {J/kg}
  DefaultMultipliers,                     !- Dry-Bulb Temperature Range Modifier Type
  ,                                       !- Dry-Bulb Temperature Range Modifier Day Schedule Name
  ASHRAEClearSky;                         !- Solar Model Indicator

OS:ClimateZones,
  {ef32ab90-778a-4451-ba84-b1828d41fab8}, !- Handle
  CEC,                                    !- Climate Zone Institution Name 1
  California Climate Zone Descriptions,   !- Climate Zone Document Name 1
  1995,                                   !- Climate Zone Document Year 1
  ,                                       !- Climate Zone Value 1
  ASHRAE,                                 !- Climate Zone Institution Name 2
  ANSI/ASHRAE Standard 169,               !- Climate Zone Document Name 2
  2006,                                   !- Climate Zone Document Year 2
  3B;                                     !- Climate Zone Value 2

OS:SpaceType,
  {f525abc7-0995-45a0-9ff2-09a656ea7fcf}, !- Handle
  Mtl OfficeGeneral - DEER Pre-1975,      !- Name
  ,                                       !- Default Construction Set Name
  {3b43b55c-7fd4-484f-8982-ef07376befd6}, !- Default Schedule Set Name
  ,                                       !- Group Rendering Name
  {d92bfa6f-e7a2-4027-aec7-a011d012a6e4}, !- Design Specification Outdoor Air Object Name
  ,                                       !- Standards Template
  Mtl,                                    !- Standards Building Type
  OfficeGeneral;                          !- Standards Space Type

OS:SpaceType,
  {5a737480-e8da-41af-8c93-5a6b848ea4d8}, !- Handle
  Mtl GuestRmCorrid - DEER Pre-1975,      !- Name
  ,                                       !- Default Construction Set Name
  {5027cb4b-0239-4ea1-a5e3-336f9c5a60ae}, !- Default Schedule Set Name
  ,                                       !- Group Rendering Name
  {216791a3-ed99-42e2-9907-68604252fb12}, !- Design Specification Outdoor Air Object Name
  ,                                       !- Standards Template
  Mtl,                                    !- Standards Building Type
  GuestRmCorrid;                          !- Standards Space Type

OS:SpaceType,
  {021e4c27-9441-417b-ba67-28e80f3dcf36}, !- Handle
  Mtl Laundry - DEER Pre-1975,            !- Name
  ,                                       !- Default Construction Set Name
  {6b308106-d068-4b85-b024-83c8225a9f3f}, !- Default Schedule Set Name
  ,                                       !- Group Rendering Name
  {85778525-7154-468c-983c-3e52bd22b524}, !- Design Specification Outdoor Air Object Name
  ,                                       !- Standards Template
  Mtl,                                    !- Standards Building Type
  Laundry;                                !- Standards Space Type

OS:SpaceType,
  {a0ed92a1-82e7-404e-b68b-944692400988}, !- Handle
  Mtl GuestRmOcc - DEER Pre-1975,         !- Name
  ,                                       !- Default Construction Set Name
  {86c21bad-dd8c-4ee6-a393-18ae75512745}, !- Default Schedule Set Name
  ,                                       !- Group Rendering Name
  {c3d6d827-0e65-4e21-b2a5-1313445de683}, !- Design Specification Outdoor Air Object Name
  ,                                       !- Standards Template
  Mtl,                                    !- Standards Building Type
  GuestRmOcc;                             !- Standards Space Type

OS:Building,
  {0a93a108-2387-45c1-8759-86d3fe56676a}, !- Handle
  DEER Pre-1975|Mtl,                      !- Name
  ,                                       !- Building Sector Type
  90,                                     !- North Axis {deg}
  ,                                       !- Nominal Floor to Floor Height {m}
  ,                                       !- Space Type Name
  {44419f9d-f8b4-4569-8272-d6785512aef6}, !- Default Construction Set Name
  {df7755cb-dcd1-4463-b588-fa1be5732932}, !- Default Schedule Set Name
  ,                                       !- Standards Number of Stories
  ,                                       !- Standards Number of Above Ground Stories
  ,                                       !- Standards Template
  Mtl;                                    !- Standards Building Type

OS:BuildingStory,
  {9bfc18a1-cab9-4276-adee-4b3fe63c63af}, !- Handle
  Story Ground,                           !- Name
  0,                                      !- Nominal Z Coordinate {m}
  2.4384,                                 !- Nominal Floor to Floor Height {m}
  ,                                       !- Default Construction Set Name
  ,                                       !- Default Schedule Set Name
  ;                                       !- Group Rendering Name

OS:Space,
  {e1891787-dc35-478b-b73e-0c848830254f}, !- Handle
  Mtl GuestRmOcc A end_a - Story Ground,  !- Name
  {a0ed92a1-82e7-404e-b68b-944692400988}, !- Space Type Name
  ,                                       !- Default Construction Set Name
  ,                                       !- Default Schedule Set Name
  -0,                                     !- Direction of Relative North {deg}
  -9.33255592000391,                      !- X Origin {m}
  -9.33255592000391,                      !- Y Origin {m}
  0,                                      !- Z Origin {m}
  {9bfc18a1-cab9-4276-adee-4b3fe63c63af}, !- Building Story Name
  {047d257c-4560-43fd-8bd0-d80c1d4b7c43}; !- Thermal Zone Name

OS:Surface,
  {5494099d-21b9-499b-993b-a425f4c4a308}, !- Handle
  Surface 1,                              !- Name
  Floor,                                  !- Surface Type
  {30f50127-6703-4e3d-9139-272b07261398}, !- Construction Name
  {e1891787-dc35-478b-b73e-0c848830254f}, !- Space Name
  Ground,                                 !- Outside Boundary Condition
  ,                                       !- Outside Boundary Condition Object
  NoSun,                                  !- Sun Exposure
  NoWind,                                 !- Wind Exposure
  ,                                       !- View Factor to Ground
  ,                                       !- Number of Vertices
  -1.77635683940025e-15, -1.77635683940025e-15, 0, !- X,Y,Z Vertex 1 {m}
  -1.77635683940025e-15, 4.572, 0,        !- X,Y,Z Vertex 2 {m}
  4.572, 4.572, 0,                        !- X,Y,Z Vertex 3 {m}
  4.572, -1.77635683940025e-15, 0;        !- X,Y,Z Vertex 4 {m}

OS:Surface,
  {d59e45f1-2404-4ffa-9d11-50c7b30a0af9}, !- Handle
  Surface 2,                              !- Name
  Wall,                                   !- Surface Type
  {44eb72c2-1d3e-4311-8aec-91f91735daa5}, !- Construction Name
  {e1891787-dc35-478b-b73e-0c848830254f}, !- Space Name
  Outdoors,                               !- Outside Boundary Condition
  ,                                       !- Outside Boundary Condition Object
  SunExposed,                             !- Sun Exposure
  WindExposed,                            !- Wind Exposure
  ,                                       !- View Factor to Ground
  ,                                       !- Number of Vertices
  -1.77635683940025e-15, 4.572, 2.4384,   !- X,Y,Z Vertex 1 {m}
  -1.77635683940025e-15, 4.572, 0,        !- X,Y,Z Vertex 2 {m}
  -1.77635683940025e-15, -1.77635683940025e-15, 0, !- X,Y,Z Vertex 3 {m}
  -1.77635683940025e-15, -1.77635683940025e-15, 2.4384; !- X,Y,Z Vertex 4 {m}

OS:Surface,
  {2a214733-1bb1-463f-8dd8-171cf164e69d}, !- Handle
  Surface 3,                              !- Name
  Wall,                                   !- Surface Type
  ,                                       !- Construction Name
  {e1891787-dc35-478b-b73e-0c848830254f}, !- Space Name
  Surface,                                !- Outside Boundary Condition
  {ae213b32-b387-4b9e-a77c-930817678809}, !- Outside Boundary Condition Object
  NoSun,                                  !- Sun Exposure
  NoWind,                                 !- Wind Exposure
  ,                                       !- View Factor to Ground
  ,                                       !- Number of Vertices
  4.572, 4.572, 2.4384,                   !- X,Y,Z Vertex 1 {m}
  4.572, 4.572, 0,                        !- X,Y,Z Vertex 2 {m}
  -1.77635683940025e-15, 4.572, 0,        !- X,Y,Z Vertex 3 {m}
  -1.77635683940025e-15, 4.572, 2.4384;   !- X,Y,Z Vertex 4 {m}

OS:Surface,
  {def8f604-eb67-4ac9-8d65-b0539f300c25}, !- Handle
  Surface 4,                              !- Name
  Wall,                                   !- Surface Type
  ,                                       !- Construction Name
  {e1891787-dc35-478b-b73e-0c848830254f}, !- Space Name
  Surface,                                !- Outside Boundary Condition
  {104a348c-a16f-4919-9dab-6914d03ea36b}, !- Outside Boundary Condition Object
  NoSun,                                  !- Sun Exposure
  NoWind,                                 !- Wind Exposure
  ,                                       !- View Factor to Ground
  ,                                       !- Number of Vertices
  4.572, -1.77635683940025e-15, 2.4384,   !- X,Y,Z Vertex 1 {m}
  4.572, -1.77635683940025e-15, 0,        !- X,Y,Z Vertex 2 {m}
  4.572, 4.572, 0,                        !- X,Y,Z Vertex 3 {m}
  4.572, 4.572, 2.4384;                   !- X,Y,Z Vertex 4 {m}

OS:Surface,
  {e0be9aef-a78c-43ee-a41e-95963c073b0d}, !- Handle
  Surface 5,                              !- Name
  Wall,                                   !- Surface Type
  {44eb72c2-1d3e-4311-8aec-91f91735daa5}, !- Construction Name
  {e1891787-dc35-478b-b73e-0c848830254f}, !- Space Name
  Outdoors,                               !- Outside Boundary Condition
  ,                                       !- Outside Boundary Condition Object
  SunExposed,                             !- Sun Exposure
  WindExposed,                            !- Wind Exposure
  ,                                       !- View Factor to Ground
  ,                                       !- Number of Vertices
  -1.77635683940025e-15, -1.77635683940025e-15, 2.4384, !- X,Y,Z Vertex 1 {m}
  -1.77635683940025e-15, -1.77635683940025e-15, 0, !- X,Y,Z Vertex 2 {m}
  4.572, -1.77635683940025e-15, 0,        !- X,Y,Z Vertex 3 {m}
  4.572, -1.77635683940025e-15, 2.4384;   !- X,Y,Z Vertex 4 {m}

OS:Surface,
  {db413440-e734-4542-a8c5-420644e04f95}, !- Handle
  Surface 6,                              !- Name
  RoofCeiling,                            !- Surface Type
  ,                                       !- Construction Name
  {e1891787-dc35-478b-b73e-0c848830254f}, !- Space Name
  Surface,                                !- Outside Boundary Condition
  {ecd18128-20f8-4d76-8548-5511154a4447}, !- Outside Boundary Condition Object
  NoSun,                                  !- Sun Exposure
  NoWind,                                 !- Wind Exposure
  ,                                       !- View Factor to Ground
  ,                                       !- Number of Vertices
  4.572, -1.77635683940025e-15, 2.4384,   !- X,Y,Z Vertex 1 {m}
  4.572, 4.572, 2.4384,                   !- X,Y,Z Vertex 2 {m}
  -1.77635683940025e-15, 4.572, 2.4384,   !- X,Y,Z Vertex 3 {m}
  -1.77635683940025e-15, -1.77635683940025e-15, 2.4384; !- X,Y,Z Vertex 4 {m}

OS:ThermalZone,
  {047d257c-4560-43fd-8bd0-d80c1d4b7c43}, !- Handle
  Zone Mtl GuestRmOcc A end_a - Story Ground, !- Name
  1,                                      !- Multiplier
  ,                                       !- Ceiling Height {m}
  ,                                       !- Volume {m3}
  ,                                       !- Floor Area {m2}
  ,                                       !- Zone Inside Convection Algorithm
  ,                                       !- Zone Outside Convection Algorithm
  ,                                       !- Zone Conditioning Equipment List Name
  {06bdd2c3-7d1a-4b04-9e53-f5ccc6374c57}, !- Zone Air Inlet Port List
  {81a917d8-235b-4c60-88d2-38525c56b98a}, !- Zone Air Exhaust Port List
  {025d3a65-a6b5-42e4-847b-c22e16c9c9ad}, !- Zone Air Node Name
  {c0f5a5d4-0e42-4d5c-bb63-e30e2e7fd904}, !- Zone Return Air Port List
  ,                                       !- Primary Daylighting Control Name
  ,                                       !- Fraction of Zone Controlled by Primary Daylighting Control
  ,                                       !- Secondary Daylighting Control Name
  ,                                       !- Fraction of Zone Controlled by Secondary Daylighting Control
  ,                                       !- Illuminance Map Name
  ,                                       !- Group Rendering Name
  {77ab9edb-182d-4ac1-8c57-d4d9dabbd8bc}, !- Thermostat Name
  No;                                     !- Use Ideal Air Loads

OS:Node,
  {4b8d44f3-c19d-46e0-b532-997e14f19a6a}, !- Handle
  Zone Mtl GuestRmOcc A end_a - Story Ground Zone Air Node, !- Name
  {025d3a65-a6b5-42e4-847b-c22e16c9c9ad}, !- Inlet Port
  ;                                       !- Outlet Port

OS:Connection,
  {025d3a65-a6b5-42e4-847b-c22e16c9c9ad}, !- Handle
  {047d257c-4560-43fd-8bd0-d80c1d4b7c43}, !- Source Object
  11,                                     !- Outlet Port
  {4b8d44f3-c19d-46e0-b532-997e14f19a6a}, !- Target Object
  2;                                      !- Inlet Port

OS:PortList,
  {06bdd2c3-7d1a-4b04-9e53-f5ccc6374c57}, !- Handle
  {047d257c-4560-43fd-8bd0-d80c1d4b7c43}, !- HVAC Component
  {f581a2c7-70e2-42c1-8d67-5c2b5a8bfe30}; !- Port 1

OS:PortList,
  {81a917d8-235b-4c60-88d2-38525c56b98a}, !- Handle
  {047d257c-4560-43fd-8bd0-d80c1d4b7c43}; !- HVAC Component

OS:PortList,
  {c0f5a5d4-0e42-4d5c-bb63-e30e2e7fd904}, !- Handle
  {047d257c-4560-43fd-8bd0-d80c1d4b7c43}, !- HVAC Component
  {b2997f49-0ac2-4544-9e71-44ea83ebac69}; !- Port 1

OS:Sizing:Zone,
  {43f24373-d903-4845-b18a-7ab8c95614ff}, !- Handle
  {047d257c-4560-43fd-8bd0-d80c1d4b7c43}, !- Zone or ZoneList Name
  SupplyAirTemperature,                   !- Zone Cooling Design Supply Air Temperature Input Method
  12.7777777777778,                       !- Zone Cooling Design Supply Air Temperature {C}
  11.11,                                  !- Zone Cooling Design Supply Air Temperature Difference {deltaC}
  SupplyAirTemperature,                   !- Zone Heating Design Supply Air Temperature Input Method
  40.0000000000001,                       !- Zone Heating Design Supply Air Temperature {C}
  11.11,                                  !- Zone Heating Design Supply Air Temperature Difference {deltaC}
  0.0085,                                 !- Zone Cooling Design Supply Air Humidity Ratio {kg-H2O/kg-air}
  0.008,                                  !- Zone Heating Design Supply Air Humidity Ratio {kg-H2O/kg-air}
  ,                                       !- Zone Heating Sizing Factor
  ,                                       !- Zone Cooling Sizing Factor
  DesignDayWithLimit,                     !- Cooling Design Air Flow Method
  ,                                       !- Cooling Design Air Flow Rate {m3/s}
  ,                                       !- Cooling Minimum Air Flow per Zone Floor Area {m3/s-m2}
  ,                                       !- Cooling Minimum Air Flow {m3/s}
  ,                                       !- Cooling Minimum Air Flow Fraction
  DesignDay,                              !- Heating Design Air Flow Method
  ,                                       !- Heating Design Air Flow Rate {m3/s}
  ,                                       !- Heating Maximum Air Flow per Zone Floor Area {m3/s-m2}
  ,                                       !- Heating Maximum Air Flow {m3/s}
  ,                                       !- Heating Maximum Air Flow Fraction
  No,                                     !- Account for Dedicated Outdoor Air System
  NeutralSupplyAir,                       !- Dedicated Outdoor Air System Control Strategy
  autosize,                               !- Dedicated Outdoor Air Low Setpoint Temperature for Design {C}
  autosize,                               !- Dedicated Outdoor Air High Setpoint Temperature for Design {C}
  Sensible Load Only No Latent Load,      !- Zone Load Sizing Method
  HumidityRatioDifference,                !- Zone Latent Cooling Design Supply Air Humidity Ratio Input Method
  ,                                       !- Zone Dehumidification Design Supply Air Humidity Ratio {kgWater/kgDryAir}
  0.005,                                  !- Zone Cooling Design Supply Air Humidity Ratio Difference {kgWater/kgDryAir}
  HumidityRatioDifference,                !- Zone Latent Heating Design Supply Air Humidity Ratio Input Method
  ,                                       !- Zone Humidification Design Supply Air Humidity Ratio {kgWater/kgDryAir}
  0.005;                                  !- Zone Humidification Design Supply Air Humidity Ratio Difference {kgWater/kgDryAir}

OS:ZoneHVAC:EquipmentList,
  {7bb93f12-6e31-4e71-90ee-16b2e1ca0b44}, !- Handle
  Zone Mtl GuestRmOcc A end_a - Story Ground Zone HVAC Equipment List, !- Name
  {047d257c-4560-43fd-8bd0-d80c1d4b7c43}, !- Thermal Zone
  ,                                       !- Load Distribution Scheme
  {32fd3bff-b248-4e0e-830e-d45835cdaec6}, !- Zone Equipment 1
  1,                                      !- Zone Equipment Cooling Sequence 1
  1,                                      !- Zone Equipment Heating or No-Load Sequence 1
  ,                                       !- Zone Equipment Sequential Cooling Fraction Schedule Name 1
  ;                                       !- Zone Equipment Sequential Heating Fraction Schedule Name 1

OS:Space,
  {9d62845a-6b5a-4d9f-b740-487f87e6daac}, !- Handle
  Mtl GuestRmOcc B end_a - Story Ground,  !- Name
  {a0ed92a1-82e7-404e-b68b-944692400988}, !- Space Type Name
  ,                                       !- Default Construction Set Name
  ,                                       !- Default Schedule Set Name
  -0,                                     !- Direction of Relative North {deg}
  -9.33255592000391,                      !- X Origin {m}
  -4.76055592000391,                      !- Y Origin {m}
  0,                                      !- Z Origin {m}
  {9bfc18a1-cab9-4276-adee-4b3fe63c63af}, !- Building Story Name
  {567af3bc-4ced-49f5-8e80-3092ef73a968}; !- Thermal Zone Name

OS:Surface,
  {a37752df-5930-4ba4-8ef3-1fc2b8fdb397}, !- Handle
  Surface 7,                              !- Name
  Floor,                                  !- Surface Type
  {30f50127-6703-4e3d-9139-272b07261398}, !- Construction Name
  {9d62845a-6b5a-4d9f-b740-487f87e6daac}, !- Space Name
  Ground,                                 !- Outside Boundary Condition
  ,                                       !- Outside Boundary Condition Object
  NoSun,                                  !- Sun Exposure
  NoWind,                                 !- Wind Exposure
  ,                                       !- View Factor to Ground
  ,                                       !- Number of Vertices
  -1.77635683940025e-15, -8.88178419700125e-16, 0, !- X,Y,Z Vertex 1 {m}
  -1.77635683940025e-15, 9.52111184000782, 0, !- X,Y,Z Vertex 2 {m}
  4.572, 9.52111184000782, 0,             !- X,Y,Z Vertex 3 {m}
  4.572, -8.88178419700125e-16, 0;        !- X,Y,Z Vertex 4 {m}

OS:Surface,
  {c8ed65a6-8dc2-4b23-aff4-cb40e8792c08}, !- Handle
  Surface 8,                              !- Name
  Wall,                                   !- Surface Type
  {44eb72c2-1d3e-4311-8aec-91f91735daa5}, !- Construction Name
  {9d62845a-6b5a-4d9f-b740-487f87e6daac}, !- Space Name
  Outdoors,                               !- Outside Boundary Condition
  ,                                       !- Outside Boundary Condition Object
  SunExposed,                             !- Sun Exposure
  WindExposed,                            !- Wind Exposure
  ,                                       !- View Factor to Ground
  ,                                       !- Number of Vertices
  -1.77635683940025e-15, 9.52111184000782, 2.4384, !- X,Y,Z Vertex 1 {m}
  -1.77635683940025e-15, 9.52111184000782, 0, !- X,Y,Z Vertex 2 {m}
  -1.77635683940025e-15, -8.88178419700125e-16, 0, !- X,Y,Z Vertex 3 {m}
  -1.77635683940025e-15, -8.88178419700125e-16, 2.4384; !- X,Y,Z Vertex 4 {m}

OS:Surface,
  {7c78c503-f6cc-4950-8d60-5a92dd8c37a9}, !- Handle
  Surface 9,                              !- Name
  Wall,                                   !- Surface Type
  ,                                       !- Construction Name
  {9d62845a-6b5a-4d9f-b740-487f87e6daac}, !- Space Name
  Surface,                                !- Outside Boundary Condition
  {a9a026d3-7dd3-469b-8bf7-188b30cfbb41}, !- Outside Boundary Condition Object
  NoSun,                                  !- Sun Exposure
  NoWind,                                 !- Wind Exposure
  ,                                       !- View Factor to Ground
  ,                                       !- Number of Vertices
  4.572, 9.52111184000782, 2.4384,        !- X,Y,Z Vertex 1 {m}
  4.572, 9.52111184000782, 0,             !- X,Y,Z Vertex 2 {m}
  -1.77635683940025e-15, 9.52111184000782, 0, !- X,Y,Z Vertex 3 {m}
  -1.77635683940025e-15, 9.52111184000782, 2.4384; !- X,Y,Z Vertex 4 {m}

OS:Surface,
  {37cee666-b4cc-4b7d-9736-80b0018d8479}, !- Handle
  Surface 10,                             !- Name
  Wall,                                   !- Surface Type
  ,                                       !- Construction Name
  {9d62845a-6b5a-4d9f-b740-487f87e6daac}, !- Space Name
  Surface,                                !- Outside Boundary Condition
  {ce91a55c-f105-4071-9540-f5c0c6df341c}, !- Outside Boundary Condition Object
  NoSun,                                  !- Sun Exposure
  NoWind,                                 !- Wind Exposure
  ,                                       !- View Factor to Ground
  ,                                       !- Number of Vertices
  4.572, -8.88178419700125e-16, 2.4384,   !- X,Y,Z Vertex 1 {m}
  4.572, -8.88178419700125e-16, 0,        !- X,Y,Z Vertex 2 {m}
  4.572, 9.52111184000782, 0,             !- X,Y,Z Vertex 3 {m}
  4.572, 9.52111184000782, 2.4384;        !- X,Y,Z Vertex 4 {m}

OS:Surface,
  {ae213b32-b387-4b9e-a77c-930817678809}, !- Handle
  Surface 11,                             !- Name
  Wall,                                   !- Surface Type
  ,                                       !- Construction Name