
OS:Version,
  {894fbc6e-183e-46de-81f2-99cc4288e1c3}, !- Handle
  3.6.1;                                  !- Version Identifier

OS:Facility,
  {4e631a5a-163c-4b0d-b294-f8a60b3cbe48}; !- Handle

OS:Site,
  {58234891-02a3-48bf-b8c8-abdacd3e5bd3}, !- Handle
  Chicago Ohare Intl Ap,                  !- Name
  41.98,                                  !- Latitude {deg}
  -87.92,                                 !- Longitude {deg}
  -6,                                     !- Time Zone {hr}
  201,                                    !- Elevation {m}
  City;                                   !- Terrain

OS:SimulationControl,
  {49da10e7-2165-470e-bd95-68fb97189bbf}, !- Handle
  ,                                       !- Do Zone Sizing Calculation
  ,                                       !- Do System Sizing Calculation
  ,                                       !- Do Plant Sizing Calculation
  No,                                     !- Run Simulation for Sizing Periods
  Yes,                                    !- Run Simulation for Weather File Run Periods
  ,                                       !- Loads Convergence Tolerance Value {W}
  ,                                       !- Temperature Convergence Tolerance Value {deltaC}
  ,                                       !- Solar Distribution
  ,                                       !- Maximum Number of Warmup Days
  ,                                       !- Minimum Number of Warmup Days
  No,                                     !- Do HVAC Sizing Simulation for Sizing Periods
  1;                                      !- Maximum Number of HVAC Sizing Simulation Passes

OS:Sizing:Parameters,
  {6c4c4835-b845-4ed1-8e9e-3a7d2c79675a}, !- Handle
  1.25,                                   !- Heating Sizing Factor
  1.15;                                   !- Cooling Sizing Factor

OS:Timestep,
  {24060405-768f-4f5b-a107-f37c73dcce82}, !- Handle
  4;                                      !- Number of Timesteps per Hour

OS:ShadowCalculation,
  {f07ae50f-fa83-4f86-a1c7-9cf0699098b7}, !- Handle
  PolygonClipping,                        !- Shading Calculation Method
  ,                                       !- Shading Calculation Update Frequency Method
  20,                                     !- Shading Calculation Update Frequency
  15000,                                  !- Maximum Figures in Shadow Overlap Calculations
  ,                                       !- Polygon Clipping Algorithm
  512,                                    !- Pixel Counting Resolution
  ,                                       !- Sky Diffuse Modeling Algorithm
  No,                                     !- Output External Shading Calculation Results
  No,                                     !- Disable Self-Shading Within Shading Zone Groups
  No;                                     !- Disable Self-Shading From Shading Zone Groups to Other Zones

OS:HeatBalanceAlgorithm,
  {897d5123-807a-4c2a-979d-9ac5c9a565d0}, !- Handle
  ConductionTransferFunction,             !- Algorithm
  200;                                    !- Surface Temperature Upper Limit {C}

OS:RunPeriod,
  {19dd4b87-8b1c-413f-8d10-4333e7d8e338}, !- Handle
  Run Period 1,                           !- Name
  1,                                      !- Begin Month
  1,                                      !- Begin Day of Month
  12,                                     !- End Month
  31,                                     !- End Day of Month
  ,                                       !- Use Weather File Holidays and Special Days
  ,                                       !- Use Weather File Daylight Saving Period
  ,                                       !- Apply Weekend Holiday Rule
  ,                                       !- Use Weather File Rain Indicators
  ,                                       !- Use Weather File Snow Indicators
  ;                                       !- Number of Times Runperiod to be Repeated

OS:LifeCycleCost:Parameters,
  {fa839104-ee83-46a1-97d5-1d9a21344b7c}, !- Handle
  ,                                       !- Analysis Type
  ,                                       !- Discounting Convention
  ,                                       !- Inflation Approach
  ,                                       !- Real Discount Rate
  ,                                       !- Nominal Discount Rate
  ,                                       !- Inflation
  ,                                       !- Base Date Month
  ,                                       !- Base Date Year
  ,                                       !- Service Date Month
  ,                                       !- Service Date Year
  ;                                       !- Length of Study Period in Years

OS:Site:WaterMainsTemperature,
  {8d622871-e68c-425c-87a8-a37ac281bb6b}, !- Handle
  Correlation,                            !- Calculation Method
  ,                                       !- Temperature Schedule Name
  13.1141666666667,                       !- Annual Average Outdoor Air Temperature {C}
  26.67;                                  !- Maximum Difference In Monthly Average Outdoor Air Temperatures {deltaC}

OS:ClimateZones,
  {b0a03c3b-5926-4da0-894c-081335d98f83}, !- Handle
  ASHRAE,                                 !- Climate Zone Institution Name 1
  ANSI/ASHRAE Standard 169,               !- Climate Zone Document Name 1
  2006,                                   !- Climate Zone Document Year 1
  ASHRAE 169-2013-5A,                     !- Climate Zone Value 1
  CEC,                                    !- Climate Zone Institution Name 2
  California Climate Zone Descriptions,   !- Climate Zone Document Name 2
  1995,                                   !- Climate Zone Document Year 2
  ;                                       !- Climate Zone Value 2

OS:Building,
  {fc34f3e6-8091-4ddf-bb90-b71aa169d7d7}, !- Handle
  ComStock DOE Ref Pre-1980|Outpatient,   !- Name
  ,                                       !- Building Sector Type
  315,                                    !- North Axis {deg}
  ,                                       !- Nominal Floor to Floor Height {m}
  ,                                       !- Space Type Name
  {1f3ecdf9-e869-49eb-88b8-c94c260c82a8}, !- Default Construction Set Name
  {a305f955-c209-4101-b122-67f1e96038a5}, !- Default Schedule Set Name
  ,                                       !- Standards Number of Stories
  ,                                       !- Standards Number of Above Ground Stories
  ,                                       !- Standards Template
  Outpatient;                             !- Standards Building Type

OS:AdditionalProperties,
  {3a62a803-1783-419d-9ce2-4390cb9ed42e}, !- Handle
  {fc34f3e6-8091-4ddf-bb90-b71aa169d7d7}, !- Object Name
  grid_region,                            !- Feature Name 1
  String,                                 !- Feature Data Type 1
  RFCEc,                                  !- Feature Value 1
  hvac_system_type,                       !- Feature Name 2
  String,                                 !- Feature Data Type 2
  VAV air-cooled chiller with gas boiler reheat, !- Feature Value 2
  wall_as_constructed_template,           !- Feature Name 3
  String,                                 !- Feature Data Type 3
  ComStock DOE Ref Pre-1980,              !- Feature Value 3
  wall_template,                          !- Feature Name 4
  String,                                 !- Feature Data Type 4
  ComStock DOE Ref Pre-1980,              !- Feature Value 4
  roof_as_constructed_template,           !- Feature Name 5
  String,                                 !- Feature Data Type 5
  ComStock DOE Ref Pre-1980,              !- Feature Value 5
  roof_template,                          !- Feature Name 6
  String,                                 !- Feature Data Type 6
  ComStock DOE Ref Pre-1980,              !- Feature Value 6
  exterior_lighting_as_constructed_template, !- Feature Name 7
  String,                                 !- Feature Data Type 7
  ComStock DOE Ref Pre-1980,              !- Feature Value 7
  exterior_lighting_template,             !- Feature Name 8
  String,                                 !- Feature Data Type 8
  ComStock 90.1-2013,                     !- Feature Value 8
  interior_equipment_as_constructed_template, !- Feature Name 9
  String,                                 !- Feature Data Type 9
  ComStock DOE Ref Pre-1980,              !- Feature Value 9
  interior_equipment_template,            !- Feature Name 10
  String,                                 !- Feature Data Type 10
  ComStock 90.1-2007,                     !- Feature Value 10
  service_water_heating_as_constructed_template, !- Feature Name 11
  String,                                 !- Feature Data Type 11
  ComStock DOE Ref Pre-1980,              !- Feature Value 11
  service_water_heating_template,         !- Feature Name 12
  String,                                 !- Feature Data Type 12
  ComStock 90.1-2007,                     !- Feature Value 12
  hvac_as_constructed_template,           !- Feature Name 13
  String,                                 !- Feature Data Type 13
  ComStock DOE Ref Pre-1980,              !- Feature Value 13
  hvac_template,                          !- Feature Name 14
  String,                                 !- Feature Data Type 14
  ComStock DOE Ref 1980-2004;             !- Feature Value 14

OS:SpaceType,
  {aa5c6cf2-6ac0-452b-ab62-aada31a01ae5}, !- Handle
  Outpatient BioHazard - ComStock DOE Ref Pre-1980, !- Name
  ,                                       !- Default Construction Set Name
  {98596781-892d-40cd-acc1-bc7e8844dd87}, !- Default Schedule Set Name
  {f29e0188-dbf7-467d-8625-a91e7ca0152a}, !- Group Rendering Name
  {2b581e99-0643-49a6-a698-924436ff26ef}, !- Design Specification Outdoor Air Object Name
  ,                                       !- Standards Template
  Outpatient,                             !- Standards Building Type
  BioHazard;                              !- Standards Space Type

OS:Rendering:Color,
  {f29e0188-dbf7-467d-8625-a91e7ca0152a}, !- Handle
  Outpatient BioHazard,                   !- Name
  204,                                    !- Rendering Red Value
  120,                                    !- Rendering Green Value
  230;                                    !- Rendering Blue Value

OS:SpaceType,
  {98a02db1-a71c-44ab-9b03-d191675cdf19}, !- Handle
  Outpatient MedGas - ComStock DOE Ref Pre-1980, !- Name
  ,                                       !- Default Construction Set Name
  {2cadee0f-9739-45a4-94d3-234da5b6d1fa}, !- Default Schedule Set Name
  {61481574-6aeb-4fbf-bc69-2bcbd9c683d9}, !- Group Rendering Name
  {8fdc2d35-c350-44a6-a486-7ac88d10b04f}, !- Design Specification Outdoor Air Object Name
  ,                                       !- Standards Template
  Outpatient,                             !- Standards Building Type
  MedGas;                                 !- Standards Space Type

OS:Rendering:Color,
  {61481574-6aeb-4fbf-bc69-2bcbd9c683d9}, !- Handle
  Outpatient MedGas,                      !- Name
  204,                                    !- Rendering Red Value
  120,                                    !- Rendering Green Value
  230;                                    !- Rendering Blue Value

OS:SpaceType,
  {bc6ba507-4246-43ea-93fa-1dbd7f9b0cd2}, !- Handle
  Outpatient DressingRoom - ComStock DOE Ref Pre-1980, !- Name
  ,                                       !- Default Construction Set Name
  {2aee27d0-0d36-464a-8ae8-dd0e066d9bb5}, !- Default Schedule Set Name
  {66f4b5d0-24e9-4664-9562-5782964d2d4e}, !- Group Rendering Name
  {fbbb5452-f0eb-405c-b8f8-4b177136f954}, !- Design Specification Outdoor Air Object Name
  ,                                       !- Standards Template
  Outpatient,                             !- Standards Building Type
  DressingRoom;                           !- Standards Space Type

OS:Rendering:Color,
  {66f4b5d0-24e9-4664-9562-5782964d2d4e}, !- Handle
  Outpatient DressingRoom,                !- Name
  136,                                    !- Rendering Red Value
  78,                                     !- Rendering Green Value
  222;                                    !- Rendering Blue Value

OS:SpaceType,
  {5d7f465a-f301-4773-9a7e-93cb50a05da3}, !- Handle
  Outpatient ElevatorPumpRoom - ComStock DOE Ref Pre-1980, !- Name
  ,                                       !- Default Construction Set Name
  {2fc95da8-d199-4901-81b5-cb063e3c9d31}, !- Default Schedule Set Name
  {18b75b9f-29a9-4b6c-b252-8f59f0b07582}, !- Group Rendering Name
  {8251a3b7-e754-4de4-8ca3-091ac6a4d5ba}, !- Design Specification Outdoor Air Object Name
  ,                                       !- Standards Template
  Outpatient,                             !- Standards Building Type
  ElevatorPumpRoom;                       !- Standards Space Type

OS:Rendering:Color,
  {18b75b9f-29a9-4b6c-b252-8f59f0b07582}, !- Handle
  Outpatient ElevatorPumpRoom,            !- Name
  41,                                     !- Rendering Red Value
  31,                                     !- Rendering Green Value
  169;                                    !- Rendering Blue Value

OS:SpaceType,
  {6a184ef3-56b3-4646-b691-7fd39050f86d}, !- Handle
  Outpatient Anesthesia - ComStock DOE Ref Pre-1980, !- Name
  ,                                       !- Default Construction Set Name
  {4bac988b-eb63-4a10-9c73-3433c4d0ac27}, !- Default Schedule Set Name
  {8039d6e0-2147-4fed-8e31-abad6d0f7426}, !- Group Rendering Name
  {8fb1ba21-d226-4c4a-9970-3a5941fb94d0}, !- Design Specification Outdoor Air Object Name
  ,                                       !- Standards Template
  Outpatient,                             !- Standards Building Type
  Anesthesia;                             !- Standards Space Type

OS:Rendering:Color,
  {8039d6e0-2147-4fed-8e31-abad6d0f7426}, !- Handle
  Outpatient Anesthesia,                  !- Name
  204,                                    !- Rendering Red Value
  120,                                    !- Rendering Green Value
  230;                                    !- Rendering Blue Value

OS:SpaceType,
  {c4afe1d3-be0c-4554-8d51-2010f15174b4}, !- Handle
  Outpatient IT_Room - ComStock DOE Ref Pre-1980, !- Name
  ,                                       !- Default Construction Set Name
  {2f909a08-cb58-4481-8338-88bc8fc6a6a0}, !- Default Schedule Set Name
  {490e02a5-0626-4811-a2e3-52a073e80d8d}, !- Group Rendering Name
  {04d765d1-d6af-4959-a763-b75c26888cb9}, !- Design Specification Outdoor Air Object Name
  ,                                       !- Standards Template
  Outpatient,                             !- Standards Building Type
  IT_Room;                                !- Standards Space Type

OS:Rendering:Color,
  {490e02a5-0626-4811-a2e3-52a073e80d8d}, !- Handle
  Outpatient IT_Room,                     !- Name
  41,                                     !- Rendering Red Value
  31,                                     !- Rendering Green Value
  169;                                    !- Rendering Blue Value

OS:SpaceType,
  {587cdc68-01d1-42f8-b3bb-571c44b59b2f}, !- Handle
  Outpatient MRI_Control - ComStock DOE Ref Pre-1980, !- Name
  ,                                       !- Default Construction Set Name
  {69c17ad5-173e-4ff2-9ce2-333576ed649f}, !- Default Schedule Set Name
  {1be64ab3-86c9-4406-9b71-2b5bcab9f8f4}, !- Group Rendering Name
  {84a2be68-6c09-4721-aa94-0c0be7548aa9}, !- Design Specification Outdoor Air Object Name
  ,                                       !- Standards Template
  Outpatient,                             !- Standards Building Type
  MRI_Control;                            !- Standards Space Type

OS:Rendering:Color,
  {1be64ab3-86c9-4406-9b71-2b5bcab9f8f4}, !- Handle
  Outpatient MRI_Control,                 !- Name
  136,                                    !- Rendering Red Value
  78,                                     !- Rendering Green Value
  222;                                    !- Rendering Blue Value

OS:SpaceType,
  {37672a6c-a3b6-423a-b3b8-9262d87ac053}, !- Handle
  Outpatient ProcedureRoom - ComStock DOE Ref Pre-1980, !- Name
  ,                                       !- Default Construction Set Name
  {b892e2d4-5de8-49cf-b04e-d12b8cbd6b69}, !- Default Schedule Set Name
  {e2a4c7ac-1a3b-4e2b-8c9f-308c2cd44325}, !- Group Rendering Name
  {b9f5969e-3c2e-45c6-88d5-966d190b73bd}, !- Design Specification Outdoor Air Object Name
  ,                                       !- Standards Template
  Outpatient,                             !- Standards Building Type
  ProcedureRoom;                          !- Standards Space Type

OS:Rendering:Color,
  {e2a4c7ac-1a3b-4e2b-8c9f-308c2cd44325}, !- Handle
  Outpatient ProcedureRoom,               !- Name
  169,                                    !- Rendering Red Value
  31,                                     !- Rendering Green Value
  159;                                    !- Rendering Blue Value

OS:SpaceType,
  {1f4fc27c-5131-43ed-a396-00d2948168e8}, !- Handle
  Outpatient CleanWork - ComStock DOE Ref Pre-1980, !- Name
  ,                                       !- Default Construction Set Name
  {1035a218-4aea-42ff-8e84-6f28defa2b93}, !- Default Schedule Set Name
  {aa34c571-7dec-4740-92bd-9768a739e1f3}, !- Group Rendering Name
  {ec921718-3d36-44f6-a52f-ba5496486071}, !- Design Specification Outdoor Air Object Name
  ,                                       !- Standards Template
  Outpatient,                             !- Standards Building Type
  CleanWork;                              !- Standards Space Type

OS:Rendering:Color,
  {aa34c571-7dec-4740-92bd-9768a739e1f3}, !- Handle
  Outpatient CleanWork,                   !- Name
  204,                                    !- Rendering Red Value
  120,                                    !- Rendering Green Value
  230;                                    !- Rendering Blue Value

OS:SpaceType,
  {a5918f05-5591-406d-8fbf-0ebee8629964}, !- Handle
  Outpatient Conference - ComStock DOE Ref Pre-1980, !- Name
  ,                                       !- Default Construction Set Name
  {ee9da25a-34b7-43aa-9c6d-9a17b9937e3b}, !- Default Schedule Set Name
  {496858ee-9297-480a-a011-98da35b42d23}, !- Group Rendering Name
  {28d2dc2e-cbe2-4ea9-a945-c935bf023a6c}, !- Design Specification Outdoor Air Object Name
  ,                                       !- Standards Template
  Outpatient,                             !- Standards Building Type
  Conference;                             !- Standards Space Type

OS:Rendering:Color,
  {496858ee-9297-480a-a011-98da35b42d23}, !- Handle
  Outpatient Conference,                  !- Name
  230,                                    !- Rendering Red Value
  196,                                    !- Rendering Green Value
  120;                                    !- Rendering Blue Value

OS:SpaceType,
  {5e5e17c1-7761-41d1-83f7-d49352588324}, !- Handle
  Outpatient Soil Work - ComStock DOE Ref Pre-1980, !- Name
  ,                                       !- Default Construction Set Name
  {dd09de8f-7225-4e7e-8f0a-09465a890ab4}, !- Default Schedule Set Name
  {d132d530-db19-4b8a-851b-14c417d24cc2}, !- Group Rendering Name
  {f5b6364a-22ee-4f35-8935-e821e2be96a6}, !- Design Specification Outdoor Air Object Name
  ,                                       !- Standards Template
  Outpatient,                             !- Standards Building Type
  Soil Work;                              !- Standards Space Type

OS:Rendering:Color,
  {d132d530-db19-4b8a-851b-14c417d24cc2}, !- Handle
  Outpatient Soil Work,                   !- Name
  204,                                    !- Rendering Red Value
  120,                                    !- Rendering Green Value
  230;                                    !- Rendering Blue Value

OS:SpaceType,
  {59f26f45-7054-4525-a204-4c28e6ea6f70}, !- Handle
  Outpatient Cafe - ComStock DOE Ref Pre-1980, !- Name
  ,                                       !- Default Construction Set Name
  {c2b58c69-aaed-4d8c-b5ff-906064aad916}, !- Default Schedule Set Name
  {aea338bf-8579-442c-b5ec-ab326a907c52}, !- Group Rendering Name
  {952d3b31-3294-47a7-989f-651903c7ffa9}, !- Design Specification Outdoor Air Object Name
  ,                                       !- Standards Template
  Outpatient,                             !- Standards Building Type
  Cafe;                                   !- Standards Space Type

OS:Rendering:Color,
  {aea338bf-8579-442c-b5ec-ab326a907c52}, !- Handle
  Outpatient Cafe,                        !- Name
  31,                                     !- Rendering Red Value
  169,                                    !- Rendering Green Value
  34;                                     !- Rendering Blue Value

OS:SpaceType,
  {1fbe6060-5010-4a97-bca3-20aaadd0042e}, !- Handle
  Outpatient MRI - ComStock DOE Ref Pre-1980, !- Name
  ,                                       !- Default Construction Set Name
  {8726e102-f7cf-4bc5-a17e-e21302b6e8ee}, !- Default Schedule Set Name
  {8bd2ce1e-4e8c-4777-bf15-5e4d3a80435f}, !- Group Rendering Name
  {bcd261a5-39d0-4c07-b05a-5e0572fd204e}, !- Design Specification Outdoor Air Object Name
  ,                                       !- Standards Template
  Outpatient,                             !- Standards Building Type
  MRI;                                    !- Standards Space Type

OS:Rendering:Color,
  {8bd2ce1e-4e8c-4777-bf15-5e4d3a80435f}, !- Handle
  Outpatient MRI,                         !- Name
  169,                                    !- Rendering Red Value
  31,                                     !- Rendering Green Value
  159;                                    !- Rendering Blue Value

OS:SpaceType,
  {f85e655c-bf2b-43b9-a0b4-db15d51c4866}, !- Handle
  Outpatient Elec/MechRoom - ComStock DOE Ref Pre-1980, !- Name
  ,                                       !- Default Construction Set Name
  {21b63f03-be11-4695-9fa7-ba24e66b4954}, !- Default Schedule Set Name
  {9856bce2-6c29-43a7-8529-a4649bc6fd32}, !- Group Rendering Name
  {835bb966-c2f5-4c7f-a4ca-810e3cd92f18}, !- Design Specification Outdoor Air Object Name
  ,                                       !- Standards Template
  Outpatient,                             !- Standards Building Type
  Elec/MechRoom;                          !- Standards Space Type

OS:Rendering:Color,
  {9856bce2-6c29-43a7-8529-a4649bc6fd32}, !- Handle
  Outpatient Elec/MechRoom,               !- Name
  41,                                     !- Rendering Red Value
  31,                                     !- Rendering Green Value
  169;                                    !- Rendering Blue Value

OS:SpaceType,
  {67594850-ef09-4540-b6c7-d63d46cda9a4}, !- Handle
  Outpatient PreOp - ComStock DOE Ref Pre-1980, !- Name
  ,                                       !- Default Construction Set Name
  {d7141720-ee01-46ca-95a2-ad447f3d7ccf}, !- Default Schedule Set Name
  {f5c1855f-092d-40f6-a938-a1fe0c7a4bcf}, !- Group Rendering Name
  {072e0727-437e-4df1-a1ee-d31fa6b4d736}, !- Design Specification Outdoor Air Object Name
  ,                                       !- Standards Template
  Outpatient,                             !- Standards Building Type
  PreOp;                                  !- Standards Space Type

OS:Rendering:Color,
  {f5c1855f-092d-40f6-a938-a1fe0c7a4bcf}, !- Handle
  Outpatient PreOp,                       !- Name
  169,                                    !- Rendering Red Value
  31,                                     !- Rendering Green Value
  159;                                    !- Rendering Blue Value

OS:SpaceType,
  {d49ece8f-f87b-49ab-98f4-824aef6fc0cb}, !- Handle
  Outpatient Stair - ComStock DOE Ref Pre-1980, !- Name
  ,                                       !- Default Construction Set Name
  {5a7d4b2f-f2ed-4827-ab47-b0c32de4203c}, !- Default Schedule Set Name
  {cee64178-cf2f-4f67-91ba-550c3a05d2d2}, !- Group Rendering Name
  {af6f9345-943c-4154-a698-32ad4c0215f5}, !- Design Specification Outdoor Air Object Name
  ,                                       !- Standards Template
  Outpatient,                             !- Standards Building Type
  Stair;                                  !- Standards Space Type

OS:Rendering:Color,
  {cee64178-cf2f-4f67-91ba-550c3a05d2d2}, !- Handle
  Outpatient Stair,                       !- Name
  230,                                    !- Rendering Red Value
  157,                                    !- Rendering Green Value
  120;                                    !- Rendering Blue Value

OS:SpaceType,
  {aa3d78fa-5f25-4ffe-b7da-11d649f6dd1b}, !- Handle
  Outpatient Lobby - ComStock DOE Ref Pre-1980, !- Name
  ,                                       !- Default Construction Set Name
  {9a679e7d-5097-46d2-b72d-261a77aaaf26}, !- Default Schedule Set Name
  {cbd46258-2363-40de-a661-3495808e6cdb}, !- Group Rendering Name
  {603621b3-17d8-4498-9f80-e0e3a9cbdcb5}, !- Design Specification Outdoor Air Object Name
  ,                                       !- Standards Template
  Outpatient,                             !- Standards Building Type
  Lobby;                                  !- Standards Space Type

OS:Rendering:Color,
  {cbd46258-2363-40de-a661-3495808e6cdb}, !- Handle
  Outpatient Lobby,                       !- Name
  230,                                    !- Rendering Red Value
  157,                                    !- Rendering Green Value
  120;                                    !- Rendering Blue Value

OS:SpaceType,
  {f3f2e2ba-ac46-43c7-a138-e6591c1f3f57}, !- Handle
  Outpatient NurseStation - ComStock DOE Ref Pre-1980, !- Name
  ,                                       !- Default Construction Set Name
  {76a38ce2-211a-4431-bf44-5472c8f981aa}, !- Default Schedule Set Name
  {e0f47f97-ef36-41e9-89bb-933e5207ba1b}, !- Group Rendering Name
  {88f050a7-5726-43da-b98e-211ea0fcf020}, !- Design Specification Outdoor Air Object Name
  ,                                       !- Standards Template
  Outpatient,                             !- Standards Building Type
  NurseStation;                           !- Standards Space Type

OS:Rendering:Color,
  {e0f47f97-ef36-41e9-89bb-933e5207ba1b}, !- Handle
  Outpatient NurseStation,                !- Name
  31,                                     !- Rendering Red Value
  162,                                    !- Rendering Green Value
  169;                                    !- Rendering Blue Value

OS:SpaceType,
  {034d69db-80db-451c-850f-cb2ea86a2645}, !- Handle
  Outpatient LockerRoom - ComStock DOE Ref Pre-1980, !- Name
  ,                                       !- Default Construction Set Name
  {55c44aa2-5497-4192-908d-6a0703979da3}, !- Default Schedule Set Name
  {da9ff8d5-a362-4927-9d32-9bc0d58639c1}, !- Group Rendering Name
  {fa9db101-14c5-4d86-ad0d-d87be7ccbd19}, !- Design Specification Outdoor Air Object Name
  ,                                       !- Standards Template
  Outpatient,                             !- Standards Building Type
  LockerRoom;                             !- Standards Space Type

OS:Rendering:Color,
  {da9ff8d5-a362-4927-9d32-9bc0d58639c1}, !- Handle
  Outpatient LockerRoom,                  !- Name
  169,                                    !- Rendering Red Value
  169,                                    !- Rendering Green Value
  31;                                     !- Rendering Blue Value

OS:SpaceType,
  {80632f7f-eb0b-44fd-a852-51d52ea5e89e}, !- Handle
  Outpatient Toilet - ComStock DOE Ref Pre-1980, !- Name
  ,                                       !- Default Construction Set Name
  {ebd304ce-223c-4064-b205-a80ead052be4}, !- Default Schedule Set Name
  {9eb32116-fe0e-4537-a18f-3abeba0bf064}, !- Group Rendering Name
  {6123f17b-dc3c-402e-a3f8-c200aef35daf}, !- Design Specification Outdoor Air Object Name
  ,                                       !- Standards Template
  Outpatient,                             !- Standards Building Type
  Toilet;                                 !- Standards Space Type

OS:Rendering:Color,
  {9eb32116-fe0e-4537-a18f-3abeba0bf064}, !- Handle
  Outpatient Toilet,                      !- Name
  169,                                    !- Rendering Red Value
  169,                                    !- Rendering Green Value
  31;                                     !- Rendering Blue Value

OS:SpaceType,
  {16384a7f-ba9a-445c-b369-70537b4fc9e6}, !- Handle
  Outpatient Xray - ComStock DOE Ref Pre-1980, !- Name
  ,                                       !- Default Construction Set Name
  {7c270283-c363-4ec8-81e0-fe1d17b8cb96}, !- Default Schedule Set Name
  {0fe53716-a00a-4538-a309-e76b399bef96}, !- Group Rendering Name
  {991dc55d-3771-4d3e-9e75-47112e65f614}, !- Design Specification Outdoor Air Object Name
  ,                                       !- Standards Template
  Outpatient,                             !- Standards Building Type
  Xray;                                   !- Standards Space Type

OS:Rendering:Color,
  {0fe53716-a00a-4538-a309-e76b399bef96}, !- Handle
  Outpatient Xray,                        !- Name
  169,                                    !- Rendering Red Value
  31,                                     !- Rendering Green Value
  159;                                    !- Rendering Blue Value

OS:SpaceType,
  {621b6251-d812-46eb-ae37-df59a0a58334}, !- Handle
  Outpatient PACU - ComStock DOE Ref Pre-1980, !- Name
  ,                                       !- Default Construction Set Name
  {e125c070-b4ca-48af-8e04-4158d8841691}, !- Default Schedule Set Name
  {4e0bf87c-241b-45f3-afb4-42d2bf2e8602}, !- Group Rendering Name
  {e5dc8559-2faf-4119-8eca-a8d111bcb6be}, !- Design Specification Outdoor Air Object Name
  ,                                       !- Standards Template
  Outpatient,                             !- Standards Building Type
  PACU;                                   !- Standards Space Type

OS:Rendering:Color,