
OS:Version,
  {0a56876e-1fb3-4fac-8302-61f52979aa5e}, !- Handle
  3.8.0;                                  !- Version Identifier

OS:Facility,
  {c8a36388-9162-4861-905c-8807f19c6d2c}; !- Handle

OS:Site,
  {76448dbc-f3e7-4ff6-ba1b-44f6c7418b48}, !- Handle
  Meriden Markham Muni_CT_USA,            !- Name
  41.51,                                  !- Latitude {deg}
  -72.83,                                 !- Longitude {deg}
  -5,                                     !- Time Zone {hr}
  32,                                     !- Elevation {m}
  City;                                   !- Terrain

OS:SimulationControl,
  {b848fb92-deb4-4ffd-8ed2-539a0f1a8acc}, !- Handle
  ,                                       !- Do Zone Sizing Calculation
  ,                                       !- Do System Sizing Calculation
  ,                                       !- Do Plant Sizing Calculation
  No,                                     !- Run Simulation for Sizing Periods
  Yes,                                    !- Run Simulation for Weather File Run Periods
  ,                                       !- Loads Convergence Tolerance Value {W}
  ,                                       !- Temperature Convergence Tolerance Value {deltaC}
  ,                                       !- Solar Distribution
  ,                                       !- Maximum Number of Warmup Days
  ,                                       !- Minimum Number of Warmup Days
  No,                                     !- Do HVAC Sizing Simulation for Sizing Periods
  1;                                      !- Maximum Number of HVAC Sizing Simulation Passes

OS:Sizing:Parameters,
  {4c65678e-04ca-4e3c-8b19-db52a23cae61}, !- Handle
  1.25,                                   !- Heating Sizing Factor
  1.15;                                   !- Cooling Sizing Factor

OS:Timestep,
  {78e22028-401f-4fa4-94e9-bc4ced172920}, !- Handle
  4;                                      !- Number of Timesteps per Hour

OS:ShadowCalculation,
  {37bd0e56-85c2-42c1-bc47-6a3b6d6c415f}, !- Handle
  PolygonClipping,                        !- Shading Calculation Method
  ,                                       !- Shading Calculation Update Frequency Method
  20,                                     !- Shading Calculation Update Frequency
  15000,                                  !- Maximum Figures in Shadow Overlap Calculations
  ,                                       !- Polygon Clipping Algorithm
  512,                                    !- Pixel Counting Resolution
  ,                                       !- Sky Diffuse Modeling Algorithm
  No,                                     !- Output External Shading Calculation Results
  No,                                     !- Disable Self-Shading Within Shading Zone Groups
  No;                                     !- Disable Self-Shading From Shading Zone Groups to Other Zones

OS:HeatBalanceAlgorithm,
  {29b22e95-3c42-457e-a6f9-9c3e50329143}, !- Handle
  ConductionTransferFunction,             !- Algorithm
  200;                                    !- Surface Temperature Upper Limit {C}

OS:RunPeriod,
  {4384a80e-6f9e-44b5-88c0-427a940d0487}, !- Handle
  Run Period 1,                           !- Name
  1,                                      !- Begin Month
  1,                                      !- Begin Day of Month
  12,                                     !- End Month
  31,                                     !- End Day of Month
  ,                                       !- Use Weather File Holidays and Special Days
  ,                                       !- Use Weather File Daylight Saving Period
  ,                                       !- Apply Weekend Holiday Rule
  ,                                       !- Use Weather File Rain Indicators
  ,                                       !- Use Weather File Snow Indicators
  ;                                       !- Number of Times Runperiod to be Repeated

OS:LifeCycleCost:Parameters,
  {6153dc70-443d-47fb-ab1b-f4c94b98d419}, !- Handle
  ,                                       !- Analysis Type
  ,                                       !- Discounting Convention
  ,                                       !- Inflation Approach
  ,                                       !- Real Discount Rate
  ,                                       !- Nominal Discount Rate
  ,                                       !- Inflation
  ,                                       !- Base Date Month
  ,                                       !- Base Date Year
  ,                                       !- Service Date Month
  ,                                       !- Service Date Year
  ;                                       !- Length of Study Period in Years

OS:WeatherFile,
  {07ad5b60-434e-4ecf-80c4-1a0d608756fd}, !- Handle
  Meriden Markham Muni,                   !- City
  CT,                                     !- State Province Region
  USA,                                    !- Country
  customized weather file,                !- Data Source
  725027,                                 !- WMO Number
  41.51,                                  !- Latitude {deg}
  -72.83,                                 !- Longitude {deg}
  -5,                                     !- Time Zone {hr}
  32,                                     !- Elevation {m}
  /weather/G0900090.epw,                  !- Url
  226BE93E,                               !- Checksum
  ,                                       !- Start Date Actual Year
  Friday;                                 !- Start Day of Week

OS:Site:WaterMainsTemperature,
  {1116fc67-e966-4b1a-ba18-1300ec675de8}, !- Handle
  Correlation,                            !- Calculation Method
  ,                                       !- Temperature Schedule Name
  10.8258333333333,                       !- Annual Average Outdoor Air Temperature {C}
  27.25;                                  !- Maximum Difference In Monthly Average Outdoor Air Temperatures {deltaC}

OS:SizingPeriod:DesignDay,
  {e93c6067-116c-4d24-8776-e2026f2816ef}, !- Handle
  Meriden Markham Muni Ann Clg .4% Condns DB=>MWB 1, !- Name
  32.6,                                   !- Maximum Dry-Bulb Temperature {C}
  10.8,                                   !- Daily Dry-Bulb Temperature Range {deltaC}
  100941,                                 !- Barometric Pressure {Pa}
  3.5,                                    !- Wind Speed {m/s}
  300,                                    !- Wind Direction {deg}
  ,                                       !- Sky Clearness
  No,                                     !- Rain Indicator
  No,                                     !- Snow Indicator
  21,                                     !- Day of Month
  7,                                      !- Month
  SummerDesignDay,                        !- Day Type
  No,                                     !- Daylight Saving Time Indicator
  Wetbulb,                                !- Humidity Condition Type
  ,                                       !- Humidity Condition Day Schedule Name
  23.2,                                   !- Wetbulb or DewPoint at Maximum Dry-Bulb {C}
  ,                                       !- Humidity Ratio at Maximum Dry-Bulb {kgWater/kgDryAir}
  ,                                       !- Enthalpy at Maximum Dry-Bulb {J/kg}
  DefaultMultipliers,                     !- Dry-Bulb Temperature Range Modifier Type
  ,                                       !- Dry-Bulb Temperature Range Modifier Day Schedule Name
  ASHRAETau,                              !- Solar Model Indicator
  ,                                       !- Beam Solar Day Schedule Name
  ,                                       !- Diffuse Solar Day Schedule Name
  0.449,                                  !- ASHRAE Clear Sky Optical Depth for Beam Irradiance {dimensionless}
  2.121;                                  !- ASHRAE Clear Sky Optical Depth for Diffuse Irradiance {dimensionless}

OS:SizingPeriod:DesignDay,
  {e8e21527-2039-415a-93ac-ddb7f18cc851}, !- Handle
  Meriden Markham Muni Ann Clg .4% Condns WB=>MDB 1, !- Name
  30.1,                                   !- Maximum Dry-Bulb Temperature {C}
  10.8,                                   !- Daily Dry-Bulb Temperature Range {deltaC}
  100941,                                 !- Barometric Pressure {Pa}
  3.5,                                    !- Wind Speed {m/s}
  300,                                    !- Wind Direction {deg}
  ,                                       !- Sky Clearness
  No,                                     !- Rain Indicator
  No,                                     !- Snow Indicator
  21,                                     !- Day of Month
  7,                                      !- Month
  SummerDesignDay,                        !- Day Type
  No,                                     !- Daylight Saving Time Indicator
  Wetbulb,                                !- Humidity Condition Type
  ,                                       !- Humidity Condition Day Schedule Name
  24.8,                                   !- Wetbulb or DewPoint at Maximum Dry-Bulb {C}
  ,                                       !- Humidity Ratio at Maximum Dry-Bulb {kgWater/kgDryAir}
  ,                                       !- Enthalpy at Maximum Dry-Bulb {J/kg}
  DefaultMultipliers,                     !- Dry-Bulb Temperature Range Modifier Type
  ,                                       !- Dry-Bulb Temperature Range Modifier Day Schedule Name
  ASHRAETau,                              !- Solar Model Indicator
  ,                                       !- Beam Solar Day Schedule Name
  ,                                       !- Diffuse Solar Day Schedule Name
  0.449,                                  !- ASHRAE Clear Sky Optical Depth for Beam Irradiance {dimensionless}
  2.121;                                  !- ASHRAE Clear Sky Optical Depth for Diffuse Irradiance {dimensionless}

OS:SizingPeriod:DesignDay,
  {0dc6b100-ae17-422a-a990-b21aae8408e8}, !- Handle
  Meriden Markham Muni Ann Htg 99.6% Condns DB 1, !- Name
  -14.9,                                  !- Maximum Dry-Bulb Temperature {C}
  0,                                      !- Daily Dry-Bulb Temperature Range {deltaC}
  100941,                                 !- Barometric Pressure {Pa}
  2.1,                                    !- Wind Speed {m/s}
  0,                                      !- Wind Direction {deg}
  0,                                      !- Sky Clearness
  No,                                     !- Rain Indicator
  No,                                     !- Snow Indicator
  21,                                     !- Day of Month
  1,                                      !- Month
  WinterDesignDay,                        !- Day Type
  No,                                     !- Daylight Saving Time Indicator
  Wetbulb,                                !- Humidity Condition Type
  ,                                       !- Humidity Condition Day Schedule Name
  -14.9,                                  !- Wetbulb or DewPoint at Maximum Dry-Bulb {C}
  ,                                       !- Humidity Ratio at Maximum Dry-Bulb {kgWater/kgDryAir}
  ,                                       !- Enthalpy at Maximum Dry-Bulb {J/kg}
  DefaultMultipliers,                     !- Dry-Bulb Temperature Range Modifier Type
  ,                                       !- Dry-Bulb Temperature Range Modifier Day Schedule Name
  ASHRAEClearSky;                         !- Solar Model Indicator

OS:SizingPeriod:DesignDay,
  {bd99cef6-05b6-445e-ae81-a852ec077c63}, !- Handle
  Meriden Markham Muni August .4% Condns DB=>MCWB 1, !- Name
  34.1,                                   !- Maximum Dry-Bulb Temperature {C}
  10.7,                                   !- Daily Dry-Bulb Temperature Range {deltaC}
  100941,                                 !- Barometric Pressure {Pa}
  3.5,                                    !- Wind Speed {m/s}
  300,                                    !- Wind Direction {deg}
  ,                                       !- Sky Clearness
  No,                                     !- Rain Indicator
  No,                                     !- Snow Indicator
  21,                                     !- Day of Month
  8,                                      !- Month
  SummerDesignDay,                        !- Day Type
  No,                                     !- Daylight Saving Time Indicator
  Wetbulb,                                !- Humidity Condition Type
  ,                                       !- Humidity Condition Day Schedule Name
  24.1,                                   !- Wetbulb or DewPoint at Maximum Dry-Bulb {C}
  ,                                       !- Humidity Ratio at Maximum Dry-Bulb {kgWater/kgDryAir}
  ,                                       !- Enthalpy at Maximum Dry-Bulb {J/kg}
  DefaultMultipliers,                     !- Dry-Bulb Temperature Range Modifier Type
  ,                                       !- Dry-Bulb Temperature Range Modifier Day Schedule Name
  ASHRAETau,                              !- Solar Model Indicator
  ,                                       !- Beam Solar Day Schedule Name
  ,                                       !- Diffuse Solar Day Schedule Name
  0.437,                                  !- ASHRAE Clear Sky Optical Depth for Beam Irradiance {dimensionless}
  2.19;                                   !- ASHRAE Clear Sky Optical Depth for Diffuse Irradiance {dimensionless}

OS:SizingPeriod:DesignDay,
  {ec229d82-b062-43db-923b-bc356ebe21f4}, !- Handle
  Meriden Markham Muni October .4% Condns DB=>MCWB 1, !- Name
  27,                                     !- Maximum Dry-Bulb Temperature {C}
  11.2,                                   !- Daily Dry-Bulb Temperature Range {deltaC}
  100941,                                 !- Barometric Pressure {Pa}
  3.5,                                    !- Wind Speed {m/s}
  300,                                    !- Wind Direction {deg}
  ,                                       !- Sky Clearness
  No,                                     !- Rain Indicator
  No,                                     !- Snow Indicator
  21,                                     !- Day of Month
  10,                                     !- Month
  SummerDesignDay,                        !- Day Type
  No,                                     !- Daylight Saving Time Indicator
  Wetbulb,                                !- Humidity Condition Type
  ,                                       !- Humidity Condition Day Schedule Name
  20.4,                                   !- Wetbulb or DewPoint at Maximum Dry-Bulb {C}
  ,                                       !- Humidity Ratio at Maximum Dry-Bulb {kgWater/kgDryAir}
  ,                                       !- Enthalpy at Maximum Dry-Bulb {J/kg}
  DefaultMultipliers,                     !- Dry-Bulb Temperature Range Modifier Type
  ,                                       !- Dry-Bulb Temperature Range Modifier Day Schedule Name
  ASHRAETau,                              !- Solar Model Indicator
  ,                                       !- Beam Solar Day Schedule Name
  ,                                       !- Diffuse Solar Day Schedule Name
  0.349,                                  !- ASHRAE Clear Sky Optical Depth for Beam Irradiance {dimensionless}
  2.492;                                  !- ASHRAE Clear Sky Optical Depth for Diffuse Irradiance {dimensionless}

OS:SizingPeriod:DesignDay,
  {e7f66162-f4de-4ce9-8ec2-0647e080dcc5}, !- Handle
  Meriden Markham Muni September .4% Condns DB=>MCWB 1, !- Name
  31.1,                                   !- Maximum Dry-Bulb Temperature {C}
  11.6,                                   !- Daily Dry-Bulb Temperature Range {deltaC}
  100941,                                 !- Barometric Pressure {Pa}
  3.5,                                    !- Wind Speed {m/s}
  300,                                    !- Wind Direction {deg}
  ,                                       !- Sky Clearness
  No,                                     !- Rain Indicator
  No,                                     !- Snow Indicator
  21,                                     !- Day of Month
  9,                                      !- Month
  SummerDesignDay,                        !- Day Type
  No,                                     !- Daylight Saving Time Indicator
  Wetbulb,                                !- Humidity Condition Type
  ,                                       !- Humidity Condition Day Schedule Name
  21.8,                                   !- Wetbulb or DewPoint at Maximum Dry-Bulb {C}
  ,                                       !- Humidity Ratio at Maximum Dry-Bulb {kgWater/kgDryAir}
  ,                                       !- Enthalpy at Maximum Dry-Bulb {J/kg}
  DefaultMultipliers,                     !- Dry-Bulb Temperature Range Modifier Type
  ,                                       !- Dry-Bulb Temperature Range Modifier Day Schedule Name
  ASHRAETau,                              !- Solar Model Indicator
  ,                                       !- Beam Solar Day Schedule Name
  ,                                       !- Diffuse Solar Day Schedule Name
  0.4,                                    !- ASHRAE Clear Sky Optical Depth for Beam Irradiance {dimensionless}
  2.317;                                  !- ASHRAE Clear Sky Optical Depth for Diffuse Irradiance {dimensionless}

OS:ClimateZones,
  {89ed0160-2d77-49a2-a794-5a81d1947a36}, !- Handle
  ASHRAE,                                 !- Climate Zone Institution Name 1
  ANSI/ASHRAE Standard 169,               !- Climate Zone Document Name 1
  2006,                                   !- Climate Zone Document Year 1
  ASHRAE 169-2013-5A;                     !- Climate Zone Value 1

OS:RunPeriodControl:DaylightSavingTime,
  {18489650-6637-4647-a758-7f43b43d56ec}, !- Handle
  2nd Sunday in March,                    !- Start Date
  1st Sunday in November;                 !- End Date

OS:YearDescription,
  {3a0e29eb-d02f-48e9-a110-cce01ba9a9e7}, !- Handle
  2018,                                   !- Calendar Year
  ,                                       !- Day of Week for Start Day
  ;                                       !- Is Leap Year

OS:Building,
  {412a0452-ff34-49d3-b9a1-000178a3e732}, !- Handle
  ComStock DOE Ref Pre-1980|Warehouse,    !- Name
  ,                                       !- Building Sector Type
  45,                                     !- North Axis {deg}
  ,                                       !- Nominal Floor to Floor Height {m}
  ,                                       !- Space Type Name
  {958f5d2b-bc01-438a-9b89-9a7c344d7641}, !- Default Construction Set Name
  {a414e6fb-1fe4-496c-ab5c-3c21a875e8cc}, !- Default Schedule Set Name
  ,                                       !- Standards Number of Stories
  ,                                       !- Standards Number of Above Ground Stories
  ,                                       !- Standards Template
  Warehouse;                              !- Standards Building Type

OS:AdditionalProperties,
  {cdf210ad-7833-4479-919c-e65470525229}, !- Handle
  {412a0452-ff34-49d3-b9a1-000178a3e732}, !- Object Name
  Building,                               !- Feature Name 1
  String,                                 !- Feature Data Type 1
  1889,                                   !- Feature Value 1
  Soil Conductivity,                      !- Feature Name 2
  Double,                                 !- Feature Data Type 2
  1.3999999999999999,                     !- Feature Value 2
  Undisturbed Ground Temperature,         !- Feature Name 3
  Double,                                 !- Feature Data Type 3
  11.5,                                   !- Feature Value 3
  airtightness,                           !- Feature Name 4
  String,                                 !- Feature Data Type 4
  10.0,                                   !- Feature Value 4
  american_housing_survey_region,         !- Feature Name 5
  String,                                 !- Feature Data Type 5
  Non-CBSA New England,                   !- Feature Value 5
  aspect_ratio,                           !- Feature Name 6
  String,                                 !- Feature Data Type 6
  1,                                      !- Feature Value 6
  baseline_hvac_sizing,                   !- Feature Name 7
  String,                                 !- Feature Data Type 7
  hardsize,                               !- Feature Value 7
  baseline_window_type,                   !- Feature Name 8
  String,                                 !- Feature Data Type 8
  Double - LowE - Clear - Aluminum,       !- Feature Value 8
  building_shape,                         !- Feature Name 9
  String,                                 !- Feature Data Type 9
  2,                                      !- Feature Value 9
  building_size_lighting_tech,            !- Feature Name 10
  String,                                 !- Feature Data Type 10
  small,                                  !- Feature Value 10
  building_subtype,                       !- Feature Name 11
  String,                                 !- Feature Data Type 11
  NA,                                     !- Feature Value 11
  building_type,                          !- Feature Name 12
  String,                                 !- Feature Data Type 12
  warehouse,                              !- Feature Value 12
  cambium_grid_region,                    !- Feature Name 13
  String,                                 !- Feature Data Type 13
  NEWEc,                                  !- Feature Value 13
  census_division_name,                   !- Feature Name 14
  String,                                 !- Feature Data Type 14
  New England,                            !- Feature Value 14
  census_division_name_recs,              !- Feature Name 15
  String,                                 !- Feature Data Type 15
  New England,                            !- Feature Value 15
  census_region_name,                     !- Feature Name 16
  String,                                 !- Feature Data Type 16
  Northeast,                              !- Feature Value 16
  climate_zone,                           !- Feature Name 17
  String,                                 !- Feature Data Type 17
  5A,                                     !- Feature Value 17
  climate_zone_ashrae_2006,               !- Feature Name 18
  String,                                 !- Feature Data Type 18
  5A,                                     !- Feature Value 18
  climate_zone_building_america,          !- Feature Name 19
  String,                                 !- Feature Data Type 19
  Cold,                                   !- Feature Value 19
  cluster_id,                             !- Feature Name 20
  String,                                 !- Feature Data Type 20
  52,                                     !- Feature Value 20
  cluster_name,                           !- Feature Name 21
  String,                                 !- Feature Data Type 21
  Southern New England,                   !- Feature Value 21
  cook_broiler_counts,                    !- Feature Name 22
  String,                                 !- Feature Data Type 22
  0.0,                                    !- Feature Value 22
  cook_dining_type,                       !- Feature Name 23
  String,                                 !- Feature Data Type 23
  None,                                   !- Feature Value 23
  cook_fryers_counts,                     !- Feature Name 24
  String,                                 !- Feature Data Type 24
  0.0,                                    !- Feature Value 24
  cook_fuel_broiler,                      !- Feature Name 25
  String,                                 !- Feature Data Type 25
  Gas,                                    !- Feature Value 25
  cook_fuel_fryer,                        !- Feature Name 26
  String,                                 !- Feature Data Type 26
  Gas,                                    !- Feature Value 26
  cook_fuel_griddle,                      !- Feature Name 27
  String,                                 !- Feature Data Type 27
  Electric,                               !- Feature Value 27
  cook_fuel_oven,                         !- Feature Name 28
  String,                                 !- Feature Data Type 28
  Gas,                                    !- Feature Value 28
  cook_fuel_range,                        !- Feature Name 29
  String,                                 !- Feature Data Type 29
  Gas,                                    !- Feature Value 29
  cook_fuel_steamer,                      !- Feature Name 30
  String,                                 !- Feature Data Type 30
  Electric,                               !- Feature Value 30
  cook_griddles_counts,                   !- Feature Name 31
  String,                                 !- Feature Data Type 31
  0.0,                                    !- Feature Value 31
  cook_ovens_counts,                      !- Feature Name 32
  String,                                 !- Feature Data Type 32
  0.0,                                    !- Feature Value 32
  cook_ranges_counts,                     !- Feature Name 33
  String,                                 !- Feature Data Type 33
  0.0,                                    !- Feature Value 33
  cook_steamers_counts,                   !- Feature Name 34
  String,                                 !- Feature Data Type 34
  0.0,                                    !- Feature Value 34
  county_id,                              !- Feature Name 35
  String,                                 !- Feature Data Type 35
  G0900090,                               !- Feature Value 35
  energy_code_compliance_during_original_building_construction, !- Feature Name 36
  String,                                 !- Feature Data Type 36
  comply,                                 !- Feature Value 36
  energy_code_compliance_exterior_lighting, !- Feature Name 37
  String,                                 !- Feature Data Type 37
  comply,                                 !- Feature Value 37
  energy_code_compliance_hvac,            !- Feature Name 38
  String,                                 !- Feature Data Type 38
  comply,                                 !- Feature Value 38
  energy_code_compliance_interior_equipment, !- Feature Name 39
  String,                                 !- Feature Data Type 39
  comply,                                 !- Feature Value 39
  energy_code_compliance_interior_lighting, !- Feature Name 40
  String,                                 !- Feature Data Type 40
  lead,                                   !- Feature Value 40
  energy_code_compliance_roof,            !- Feature Name 41
  String,                                 !- Feature Data Type 41
  comply,                                 !- Feature Value 41
  energy_code_compliance_service_water_heating, !- Feature Name 42
  String,                                 !- Feature Data Type 42
  comply,                                 !- Feature Value 42
  energy_code_compliance_walls,           !- Feature Name 43
  String,                                 !- Feature Data Type 43
  comply,                                 !- Feature Value 43
  energy_code_compliance_windows,         !- Feature Name 44
  String,                                 !- Feature Data Type 44
  comply,                                 !- Feature Value 44
  energy_code_followed_during_last_exterior_lighting_replacement, !- Feature Name 45
  String,                                 !- Feature Data Type 45
  ComStock 90.1-2013,                     !- Feature Value 45
  energy_code_followed_during_last_hvac_replacement, !- Feature Name 46
  String,                                 !- Feature Data Type 46
  ComStock 90.1-2004,                     !- Feature Value 46
  energy_code_followed_during_last_interior_equipment_replacement, !- Feature Name 47
  String,                                 !- Feature Data Type 47
  ComStock 90.1-2004,                     !- Feature Value 47
  energy_code_followed_during_last_interior_lighting_replacement, !- Feature Name 48
  String,                                 !- Feature Data Type 48
  ComStock 90.1-2019,                     !- Feature Value 48
  energy_code_followed_during_last_roof_replacement, !- Feature Name 49
  String,                                 !- Feature Data Type 49
  ComStock DOE Ref Pre-1980,              !- Feature Value 49
  energy_code_followed_during_last_service_water_heating_replacement, !- Feature Name 50
  String,                                 !- Feature Data Type 50
  ComStock 90.1-2004,                     !- Feature Value 50
  energy_code_followed_during_last_walls_replacement, !- Feature Name 51
  String,                                 !- Feature Data Type 51
  ComStock DOE Ref Pre-1980,              !- Feature Value 51
  energy_code_followed_during_last_windows_replacement, !- Feature Name 52
  String,                                 !- Feature Data Type 52
  ComStock DOE Ref 1980-2004,             !- Feature Value 52
  energy_code_followed_during_original_building_construction, !- Feature Name 53
  String,                                 !- Feature Data Type 53
  ComStock DOE Ref Pre-1980,              !- Feature Value 53
  energy_code_in_force_during_last_exterior_lighting_replacement, !- Feature Name 54
  String,                                 !- Feature Data Type 54
  ComStock 90.1-2013,                     !- Feature Value 54
  energy_code_in_force_during_last_hvac_replacement, !- Feature Name 55
  String,                                 !- Feature Data Type 55
  ComStock 90.1-2004,                     !- Feature Value 55
  energy_code_in_force_during_last_interior_equipment_replacement, !- Feature Name 56
  String,                                 !- Feature Data Type 56