
OS:Version,
  {6116c949-9c51-4ca0-9fec-6fc36d987ce3}, !- Handle
  2.8.1;                                  !- Version Identifier

OS:WeatherFile,
  {ab316cab-dbbf-4d54-8466-ce3beec2920e}, !- Handle
  Knoxville Municipal,                    !- City
  TN,                                     !- State Province Region
  USA,                                    !- Country
  customized weather file,                !- Data Source
  723260,                                 !- WMO Number
  35.82,                                  !- Latitude {deg}
  -83.99,                                 !- Longitude {deg}
  -5,                                     !- Time Zone {hr}
  299,                                    !- Elevation {m}
  file:////weather/USA_TN_Knoxville.Municipal.723260_2012.epw, !- Url
  226BE93E;                               !- Checksum

OS:RunPeriodControl:DaylightSavingTime,
  {5e514361-52bc-426f-bd0a-0de9f256b4d5}, !- Handle
  2nd Sunday in March,                    !- Start Date
  1st Sunday in November;                 !- End Date

OS:YearDescription,
  {40ed990a-75c6-47c8-aa03-7e11de42b333}, !- Handle
  2016,                                   !- Calendar Year
  ,                                       !- Day of Week for Start Day
  ;                                       !- Is Leap Year

OS:Timestep,
  {659b50aa-4fd5-4181-baa3-2d27f4239a44}, !- Handle
  4;                                      !- Number of Timesteps per Hour

OS:RunPeriod,
  {a7a8fbc6-0863-49cd-9d71-d2dc73650e32}, !- Handle
  Run Period 1,                           !- Name
  1,                                      !- Begin Month
  1,                                      !- Begin Day of Month
  12,                                     !- End Month
  30,                                     !- End Day of Month
  ,                                       !- Use Weather File Holidays and Special Days
  ,                                       !- Use Weather File Daylight Saving Period
  ,                                       !- Apply Weekend Holiday Rule
  ,                                       !- Use Weather File Rain Indicators
  ,                                       !- Use Weather File Snow Indicators
  ;                                       !- Number of Times Runperiod to be Repeated

OS:Site,
  {93de16b0-221f-4c37-8d7c-b2bc4ea21b1d}, !- Handle
  Knoxville Municipal_TN_USA,             !- Name
  35.82,                                  !- Latitude {deg}
  -83.99,                                 !- Longitude {deg}
  -5,                                     !- Time Zone {hr}
  299,                                    !- Elevation {m}
  City;                                   !- Terrain

OS:Site:WaterMainsTemperature,
  {0fe60785-02fe-4325-9d07-147a9d948110}, !- Handle
  Correlation,                            !- Calculation Method
  ,                                       !- Temperature Schedule Name
  16.1916666666667,                       !- Annual Average Outdoor Air Temperature {C}
  20.5;                                   !- Maximum Difference In Monthly Average Outdoor Air Temperatures {deltaC}

OS:SizingPeriod:DesignDay,
  {5416f2f4-3824-4a02-b031-94d79fa6b76e}, !- Handle
  Knoxville Municipal Ann Clg .4% Condns DB=>MWB 1, !- Name
  33.9,                                   !- Maximum Dry-Bulb Temperature {C}
  10.3,                                   !- Daily Dry-Bulb Temperature Range {deltaC}
  23.3,                                   !- Humidity Indicating Conditions at Maximum Dry-Bulb
  97784,                                  !- Barometric Pressure {Pa}
  3.2,                                    !- Wind Speed {m/s}
  260,                                    !- Wind Direction {deg}
  0,                                      !- Sky Clearness
  0,                                      !- Rain Indicator
  0,                                      !- Snow Indicator
  21,                                     !- Day of Month
  7,                                      !- Month
  SummerDesignDay,                        !- Day Type
  0,                                      !- Daylight Saving Time Indicator
  Wetbulb,                                !- Humidity Indicating Type
  ,                                       !- Humidity Indicating Day Schedule Name
  DefaultMultipliers,                     !- Dry-Bulb Temperature Range Modifier Type
  ,                                       !- Dry-Bulb Temperature Range Modifier Schedule Name
  ASHRAETau,                              !- Solar Model Indicator
  ,                                       !- Beam Solar Day Schedule Name
  ,                                       !- Diffuse Solar Day Schedule Name
  0.455,                                  !- ASHRAE Taub {dimensionless}
  2.134;                                  !- ASHRAE Taud {dimensionless}

OS:SizingPeriod:DesignDay,
  {04ac98d7-7d39-4b87-a5a7-09609bd1939a}, !- Handle
  Knoxville Municipal Ann Clg .4% Condns WB=>MDB 1, !- Name
  31,                                     !- Maximum Dry-Bulb Temperature {C}
  10.3,                                   !- Daily Dry-Bulb Temperature Range {deltaC}
  25.1,                                   !- Humidity Indicating Conditions at Maximum Dry-Bulb
  97784,                                  !- Barometric Pressure {Pa}
  3.2,                                    !- Wind Speed {m/s}
  260,                                    !- Wind Direction {deg}
  0,                                      !- Sky Clearness
  0,                                      !- Rain Indicator
  0,                                      !- Snow Indicator
  21,                                     !- Day of Month
  7,                                      !- Month
  SummerDesignDay,                        !- Day Type
  0,                                      !- Daylight Saving Time Indicator
  Wetbulb,                                !- Humidity Indicating Type
  ,                                       !- Humidity Indicating Day Schedule Name
  DefaultMultipliers,                     !- Dry-Bulb Temperature Range Modifier Type
  ,                                       !- Dry-Bulb Temperature Range Modifier Schedule Name
  ASHRAETau,                              !- Solar Model Indicator
  ,                                       !- Beam Solar Day Schedule Name
  ,                                       !- Diffuse Solar Day Schedule Name
  0.455,                                  !- ASHRAE Taub {dimensionless}
  2.134;                                  !- ASHRAE Taud {dimensionless}

OS:SizingPeriod:DesignDay,
  {f75d807f-64b2-40c3-88fb-ba047a984328}, !- Handle
  Knoxville Municipal Ann Clg 1% Condns DB=>MWB 1, !- Name
  32.6,                                   !- Maximum Dry-Bulb Temperature {C}
  10.3,                                   !- Daily Dry-Bulb Temperature Range {deltaC}
  23.1,                                   !- Humidity Indicating Conditions at Maximum Dry-Bulb
  97784,                                  !- Barometric Pressure {Pa}
  3.2,                                    !- Wind Speed {m/s}
  260,                                    !- Wind Direction {deg}
  0,                                      !- Sky Clearness
  0,                                      !- Rain Indicator
  0,                                      !- Snow Indicator
  21,                                     !- Day of Month
  7,                                      !- Month
  SummerDesignDay,                        !- Day Type
  0,                                      !- Daylight Saving Time Indicator
  Wetbulb,                                !- Humidity Indicating Type
  ,                                       !- Humidity Indicating Day Schedule Name
  DefaultMultipliers,                     !- Dry-Bulb Temperature Range Modifier Type
  ,                                       !- Dry-Bulb Temperature Range Modifier Schedule Name
  ASHRAETau,                              !- Solar Model Indicator
  ,                                       !- Beam Solar Day Schedule Name
  ,                                       !- Diffuse Solar Day Schedule Name
  0.455,                                  !- ASHRAE Taub {dimensionless}
  2.134;                                  !- ASHRAE Taud {dimensionless}

OS:SizingPeriod:DesignDay,
  {3ce76380-e080-41c3-b55d-d1c25333dd0d}, !- Handle
  Knoxville Municipal Ann Clg 2% Condns DP=>MDB 1, !- Name
  26.4,                                   !- Maximum Dry-Bulb Temperature {C}
  10.3,                                   !- Daily Dry-Bulb Temperature Range {deltaC}
  22.4,                                   !- Humidity Indicating Conditions at Maximum Dry-Bulb
  97784,                                  !- Barometric Pressure {Pa}
  3.2,                                    !- Wind Speed {m/s}
  260,                                    !- Wind Direction {deg}
  0,                                      !- Sky Clearness
  0,                                      !- Rain Indicator
  0,                                      !- Snow Indicator
  21,                                     !- Day of Month
  7,                                      !- Month
  SummerDesignDay,                        !- Day Type
  0,                                      !- Daylight Saving Time Indicator
  Dewpoint,                               !- Humidity Indicating Type
  ,                                       !- Humidity Indicating Day Schedule Name
  DefaultMultipliers,                     !- Dry-Bulb Temperature Range Modifier Type
  ,                                       !- Dry-Bulb Temperature Range Modifier Schedule Name
  ASHRAETau,                              !- Solar Model Indicator
  ,                                       !- Beam Solar Day Schedule Name
  ,                                       !- Diffuse Solar Day Schedule Name
  0.455,                                  !- ASHRAE Taub {dimensionless}
  2.134;                                  !- ASHRAE Taud {dimensionless}

OS:SizingPeriod:DesignDay,
  {f9272697-df15-4b88-8f2d-313c618ec5f9}, !- Handle
  Knoxville Municipal Ann Htg 99% Condns DB 1, !- Name
  -6.2,                                   !- Maximum Dry-Bulb Temperature {C}
  0,                                      !- Daily Dry-Bulb Temperature Range {deltaC}
  -6.2,                                   !- Humidity Indicating Conditions at Maximum Dry-Bulb
  97784,                                  !- Barometric Pressure {Pa}
  2.5,                                    !- Wind Speed {m/s}
  50,                                     !- Wind Direction {deg}
  0,                                      !- Sky Clearness
  0,                                      !- Rain Indicator
  0,                                      !- Snow Indicator
  21,                                     !- Day of Month
  1,                                      !- Month
  WinterDesignDay,                        !- Day Type
  0,                                      !- Daylight Saving Time Indicator
  Wetbulb,                                !- Humidity Indicating Type
  ,                                       !- Humidity Indicating Day Schedule Name
  DefaultMultipliers,                     !- Dry-Bulb Temperature Range Modifier Type
  ,                                       !- Dry-Bulb Temperature Range Modifier Schedule Name
  ASHRAEClearSky;                         !- Solar Model Indicator

OS:SizingPeriod:DesignDay,
  {a210542a-a96c-4847-b862-64389263321a}, !- Handle
  Knoxville Municipal Ann Htg 99.6% Condns DB 1, !- Name
  -8.6,                                   !- Maximum Dry-Bulb Temperature {C}
  0,                                      !- Daily Dry-Bulb Temperature Range {deltaC}
  -8.6,                                   !- Humidity Indicating Conditions at Maximum Dry-Bulb
  97784,                                  !- Barometric Pressure {Pa}
  2.5,                                    !- Wind Speed {m/s}
  50,                                     !- Wind Direction {deg}
  0,                                      !- Sky Clearness
  0,                                      !- Rain Indicator
  0,                                      !- Snow Indicator
  21,                                     !- Day of Month
  1,                                      !- Month
  WinterDesignDay,                        !- Day Type
  0,                                      !- Daylight Saving Time Indicator
  Wetbulb,                                !- Humidity Indicating Type
  ,                                       !- Humidity Indicating Day Schedule Name
  DefaultMultipliers,                     !- Dry-Bulb Temperature Range Modifier Type
  ,                                       !- Dry-Bulb Temperature Range Modifier Schedule Name
  ASHRAEClearSky;                         !- Solar Model Indicator

OS:SizingPeriod:DesignDay,
  {303f578f-8465-4f15-9a3f-6272adcd319e}, !- Handle
  Knoxville Municipal Ann Htg Wind 99% Condns WS=>MCDB 1, !- Name
  12,                                     !- Maximum Dry-Bulb Temperature {C}
  0,                                      !- Daily Dry-Bulb Temperature Range {deltaC}
  12,                                     !- Humidity Indicating Conditions at Maximum Dry-Bulb
  97784,                                  !- Barometric Pressure {Pa}
  9.6,                                    !- Wind Speed {m/s}
  50,                                     !- Wind Direction {deg}
  0,                                      !- Sky Clearness
  0,                                      !- Rain Indicator
  0,                                      !- Snow Indicator
  21,                                     !- Day of Month
  1,                                      !- Month
  WinterDesignDay,                        !- Day Type
  0,                                      !- Daylight Saving Time Indicator
  Wetbulb,                                !- Humidity Indicating Type
  ,                                       !- Humidity Indicating Day Schedule Name
  DefaultMultipliers,                     !- Dry-Bulb Temperature Range Modifier Type
  ,                                       !- Dry-Bulb Temperature Range Modifier Schedule Name
  ASHRAEClearSky;                         !- Solar Model Indicator

OS:SizingPeriod:DesignDay,
  {c418fbc8-7ae1-4d62-aaa0-3b73dc2f98b2}, !- Handle
  Knoxville Municipal April .4% Condns DB=>MCWB 1, !- Name
  29.1,                                   !- Maximum Dry-Bulb Temperature {C}
  12,                                     !- Daily Dry-Bulb Temperature Range {deltaC}
  19,                                     !- Humidity Indicating Conditions at Maximum Dry-Bulb
  97784,                                  !- Barometric Pressure {Pa}
  3.2,                                    !- Wind Speed {m/s}
  260,                                    !- Wind Direction {deg}
  0,                                      !- Sky Clearness
  0,                                      !- Rain Indicator
  0,                                      !- Snow Indicator
  21,                                     !- Day of Month
  4,                                      !- Month
  SummerDesignDay,                        !- Day Type
  0,                                      !- Daylight Saving Time Indicator
  Wetbulb,                                !- Humidity Indicating Type
  ,                                       !- Humidity Indicating Day Schedule Name
  DefaultMultipliers,                     !- Dry-Bulb Temperature Range Modifier Type
  ,                                       !- Dry-Bulb Temperature Range Modifier Schedule Name
  ASHRAETau,                              !- Solar Model Indicator
  ,                                       !- Beam Solar Day Schedule Name
  ,                                       !- Diffuse Solar Day Schedule Name
  0.393,                                  !- ASHRAE Taub {dimensionless}
  2.299;                                  !- ASHRAE Taud {dimensionless}

OS:SizingPeriod:DesignDay,
  {d7b3726c-6d2c-48de-9a2b-27d725a43d97}, !- Handle
  Knoxville Municipal April .4% Condns WB=>MCDB 1, !- Name
  26.6,                                   !- Maximum Dry-Bulb Temperature {C}
  12,                                     !- Daily Dry-Bulb Temperature Range {deltaC}
  21.1,                                   !- Humidity Indicating Conditions at Maximum Dry-Bulb
  97784,                                  !- Barometric Pressure {Pa}
  3.2,                                    !- Wind Speed {m/s}
  260,                                    !- Wind Direction {deg}
  0,                                      !- Sky Clearness
  0,                                      !- Rain Indicator
  0,                                      !- Snow Indicator
  21,                                     !- Day of Month
  4,                                      !- Month
  SummerDesignDay,                        !- Day Type
  0,                                      !- Daylight Saving Time Indicator
  Wetbulb,                                !- Humidity Indicating Type
  ,                                       !- Humidity Indicating Day Schedule Name
  DefaultMultipliers,                     !- Dry-Bulb Temperature Range Modifier Type
  ,                                       !- Dry-Bulb Temperature Range Modifier Schedule Name
  ASHRAETau,                              !- Solar Model Indicator
  ,                                       !- Beam Solar Day Schedule Name
  ,                                       !- Diffuse Solar Day Schedule Name
  0.393,                                  !- ASHRAE Taub {dimensionless}
  2.299;                                  !- ASHRAE Taud {dimensionless}

OS:SizingPeriod:DesignDay,
  {48fcb74f-676e-4248-8baa-2ccf0123d731}, !- Handle
  Knoxville Municipal August .4% Condns DB=>MCWB 1, !- Name
  35.7,                                   !- Maximum Dry-Bulb Temperature {C}
  10.6,                                   !- Daily Dry-Bulb Temperature Range {deltaC}
  23.8,                                   !- Humidity Indicating Conditions at Maximum Dry-Bulb
  97784,                                  !- Barometric Pressure {Pa}
  3.2,                                    !- Wind Speed {m/s}
  260,                                    !- Wind Direction {deg}
  0,                                      !- Sky Clearness
  0,                                      !- Rain Indicator
  0,                                      !- Snow Indicator
  21,                                     !- Day of Month
  8,                                      !- Month
  SummerDesignDay,                        !- Day Type
  0,                                      !- Daylight Saving Time Indicator
  Wetbulb,                                !- Humidity Indicating Type
  ,                                       !- Humidity Indicating Day Schedule Name
  DefaultMultipliers,                     !- Dry-Bulb Temperature Range Modifier Type
  ,                                       !- Dry-Bulb Temperature Range Modifier Schedule Name
  ASHRAETau,                              !- Solar Model Indicator
  ,                                       !- Beam Solar Day Schedule Name
  ,                                       !- Diffuse Solar Day Schedule Name
  0.443,                                  !- ASHRAE Taub {dimensionless}
  2.198;                                  !- ASHRAE Taud {dimensionless}

OS:SizingPeriod:DesignDay,
  {a906fb12-b32e-4ed9-9919-72d94c0aa543}, !- Handle
  Knoxville Municipal August .4% Condns WB=>MCDB 1, !- Name
  31.7,                                   !- Maximum Dry-Bulb Temperature {C}
  10.6,                                   !- Daily Dry-Bulb Temperature Range {deltaC}
  25.6,                                   !- Humidity Indicating Conditions at Maximum Dry-Bulb
  97784,                                  !- Barometric Pressure {Pa}
  3.2,                                    !- Wind Speed {m/s}
  260,                                    !- Wind Direction {deg}
  0,                                      !- Sky Clearness
  0,                                      !- Rain Indicator
  0,                                      !- Snow Indicator
  21,                                     !- Day of Month
  8,                                      !- Month
  SummerDesignDay,                        !- Day Type
  0,                                      !- Daylight Saving Time Indicator
  Wetbulb,                                !- Humidity Indicating Type
  ,                                       !- Humidity Indicating Day Schedule Name
  DefaultMultipliers,                     !- Dry-Bulb Temperature Range Modifier Type
  ,                                       !- Dry-Bulb Temperature Range Modifier Schedule Name
  ASHRAETau,                              !- Solar Model Indicator
  ,                                       !- Beam Solar Day Schedule Name
  ,                                       !- Diffuse Solar Day Schedule Name
  0.443,                                  !- ASHRAE Taub {dimensionless}
  2.198;                                  !- ASHRAE Taud {dimensionless}

OS:SizingPeriod:DesignDay,
  {5732c2c5-0c75-40d2-bbc4-af2bb7f3994d}, !- Handle
  Knoxville Municipal December .4% Condns DB=>MCWB 1, !- Name
  20.5,                                   !- Maximum Dry-Bulb Temperature {C}
  9.4,                                    !- Daily Dry-Bulb Temperature Range {deltaC}
  16.8,                                   !- Humidity Indicating Conditions at Maximum Dry-Bulb
  97784,                                  !- Barometric Pressure {Pa}
  3.2,                                    !- Wind Speed {m/s}
  260,                                    !- Wind Direction {deg}
  0,                                      !- Sky Clearness
  0,                                      !- Rain Indicator
  0,                                      !- Snow Indicator
  21,                                     !- Day of Month
  12,                                     !- Month
  SummerDesignDay,                        !- Day Type
  0,                                      !- Daylight Saving Time Indicator
  Wetbulb,                                !- Humidity Indicating Type
  ,                                       !- Humidity Indicating Day Schedule Name
  DefaultMultipliers,                     !- Dry-Bulb Temperature Range Modifier Type
  ,                                       !- Dry-Bulb Temperature Range Modifier Schedule Name
  ASHRAETau,                              !- Solar Model Indicator
  ,                                       !- Beam Solar Day Schedule Name
  ,                                       !- Diffuse Solar Day Schedule Name
  0.336,                                  !- ASHRAE Taub {dimensionless}
  2.601;                                  !- ASHRAE Taud {dimensionless}

OS:SizingPeriod:DesignDay,
  {b5def0a2-6dc3-432b-bd72-33cc9d2d0511}, !- Handle
  Knoxville Municipal December .4% Condns WB=>MCDB 1, !- Name
  19.8,                                   !- Maximum Dry-Bulb Temperature {C}
  9.4,                                    !- Daily Dry-Bulb Temperature Range {deltaC}
  17.4,                                   !- Humidity Indicating Conditions at Maximum Dry-Bulb
  97784,                                  !- Barometric Pressure {Pa}
  3.2,                                    !- Wind Speed {m/s}
  260,                                    !- Wind Direction {deg}
  0,                                      !- Sky Clearness
  0,                                      !- Rain Indicator
  0,                                      !- Snow Indicator
  21,                                     !- Day of Month
  12,                                     !- Month
  SummerDesignDay,                        !- Day Type
  0,                                      !- Daylight Saving Time Indicator
  Wetbulb,                                !- Humidity Indicating Type
  ,                                       !- Humidity Indicating Day Schedule Name
  DefaultMultipliers,                     !- Dry-Bulb Temperature Range Modifier Type
  ,                                       !- Dry-Bulb Temperature Range Modifier Schedule Name
  ASHRAETau,                              !- Solar Model Indicator
  ,                                       !- Beam Solar Day Schedule Name
  ,                                       !- Diffuse Solar Day Schedule Name
  0.336,                                  !- ASHRAE Taub {dimensionless}
  2.601;                                  !- ASHRAE Taud {dimensionless}

OS:SizingPeriod:DesignDay,
  {92ab8891-6d53-47e3-8d6d-77be82f5ded0}, !- Handle
  Knoxville Municipal February .4% Condns DB=>MCWB 1, !- Name
  21.9,                                   !- Maximum Dry-Bulb Temperature {C}
  10.2,                                   !- Daily Dry-Bulb Temperature Range {deltaC}
  15.6,                                   !- Humidity Indicating Conditions at Maximum Dry-Bulb
  97784,                                  !- Barometric Pressure {Pa}
  3.2,                                    !- Wind Speed {m/s}
  260,                                    !- Wind Direction {deg}
  0,                                      !- Sky Clearness
  0,                                      !- Rain Indicator
  0,                                      !- Snow Indicator
  21,                                     !- Day of Month
  2,                                      !- Month
  SummerDesignDay,                        !- Day Type
  0,                                      !- Daylight Saving Time Indicator
  Wetbulb,                                !- Humidity Indicating Type
  ,                                       !- Humidity Indicating Day Schedule Name
  DefaultMultipliers,                     !- Dry-Bulb Temperature Range Modifier Type
  ,                                       !- Dry-Bulb Temperature Range Modifier Schedule Name
  ASHRAETau,                              !- Solar Model Indicator
  ,                                       !- Beam Solar Day Schedule Name
  ,                                       !- Diffuse Solar Day Schedule Name
  0.342,                                  !- ASHRAE Taub {dimensionless}
  2.523;                                  !- ASHRAE Taud {dimensionless}

OS:SizingPeriod:DesignDay,
  {bf762e2f-ed2b-4f2f-8874-6561b010aa98}, !- Handle
  Knoxville Municipal February .4% Condns WB=>MCDB 1, !- Name
  20.2,                                   !- Maximum Dry-Bulb Temperature {C}
  10.2,                                   !- Daily Dry-Bulb Temperature Range {deltaC}
  16.8,                                   !- Humidity Indicating Conditions at Maximum Dry-Bulb
  97784,                                  !- Barometric Pressure {Pa}
  3.2,                                    !- Wind Speed {m/s}
  260,                                    !- Wind Direction {deg}
  0,                                      !- Sky Clearness
  0,                                      !- Rain Indicator
  0,                                      !- Snow Indicator
  21,                                     !- Day of Month
  2,                                      !- Month
  SummerDesignDay,                        !- Day Type
  0,                                      !- Daylight Saving Time Indicator
  Wetbulb,                                !- Humidity Indicating Type
  ,                                       !- Humidity Indicating Day Schedule Name
  DefaultMultipliers,                     !- Dry-Bulb Temperature Range Modifier Type
  ,                                       !- Dry-Bulb Temperature Range Modifier Schedule Name
  ASHRAETau,                              !- Solar Model Indicator
  ,                                       !- Beam Solar Day Schedule Name
  ,                                       !- Diffuse Solar Day Schedule Name
  0.342,                                  !- ASHRAE Taub {dimensionless}
  2.523;                                  !- ASHRAE Taud {dimensionless}

OS:SizingPeriod:DesignDay,
  {4332b5e0-c9a7-4c02-ad18-9d4ef40ad15b}, !- Handle
  Knoxville Municipal January .4% Condns DB=>MCWB 1, !- Name
  20.6,                                   !- Maximum Dry-Bulb Temperature {C}
  9.5,                                    !- Daily Dry-Bulb Temperature Range {deltaC}
  15.3,                                   !- Humidity Indicating Conditions at Maximum Dry-Bulb
  97784,                                  !- Barometric Pressure {Pa}
  3.2,                                    !- Wind Speed {m/s}
  260,                                    !- Wind Direction {deg}
  0,                                      !- Sky Clearness
  0,                                      !- Rain Indicator
  0,                                      !- Snow Indicator
  21,                                     !- Day of Month
  1,                                      !- Month
  SummerDesignDay,                        !- Day Type
  0,                                      !- Daylight Saving Time Indicator
  Wetbulb,                                !- Humidity Indicating Type
  ,                                       !- Humidity Indicating Day Schedule Name
  DefaultMultipliers,                     !- Dry-Bulb Temperature Range Modifier Type
  ,                                       !- Dry-Bulb Temperature Range Modifier Schedule Name
  ASHRAETau,                              !- Solar Model Indicator
  ,                                       !- Beam Solar Day Schedule Name
  ,                                       !- Diffuse Solar Day Schedule Name
  0.331,                                  !- ASHRAE Taub {dimensionless}
  2.605;                                  !- ASHRAE Taud {dimensionless}

OS:SizingPeriod:DesignDay,
  {50609aef-3c9d-4ac6-9641-2f92754fc742}, !- Handle
  Knoxville Municipal January .4% Condns WB=>MCDB 1, !- Name
  19.1,                                   !- Maximum Dry-Bulb Temperature {C}
  9.5,                                    !- Daily Dry-Bulb Temperature Range {deltaC}