
OS:Version,
  {bee4ba00-ba4b-4719-bd44-8d35ddb98bba}, !- Handle
  3.8.0;                                  !- Version Identifier

OS:Facility,
  {bbf2ac7d-0aed-4362-a16e-ec25e6392455}; !- Handle

OS:Site,
  {2226ecb2-a30f-4494-9511-76eaa0cb06a5}, !- Handle
  Dover Afb_DE_USA,                       !- Name
  39.12,                                  !- Latitude {deg}
  -75.47,                                 !- Longitude {deg}
  -5,                                     !- Time Zone {hr}
  9,                                      !- Elevation {m}
  City;                                   !- Terrain

OS:SimulationControl,
  {32e43d8c-bf11-415e-a6af-e025970a371e}, !- Handle
  ,                                       !- Do Zone Sizing Calculation
  ,                                       !- Do System Sizing Calculation
  ,                                       !- Do Plant Sizing Calculation
  No,                                     !- Run Simulation for Sizing Periods
  Yes,                                    !- Run Simulation for Weather File Run Periods
  ,                                       !- Loads Convergence Tolerance Value {W}
  ,                                       !- Temperature Convergence Tolerance Value {deltaC}
  ,                                       !- Solar Distribution
  ,                                       !- Maximum Number of Warmup Days
  ,                                       !- Minimum Number of Warmup Days
  No,                                     !- Do HVAC Sizing Simulation for Sizing Periods
  1;                                      !- Maximum Number of HVAC Sizing Simulation Passes

OS:Sizing:Parameters,
  {2c66f770-81df-4e59-ba77-2de0b96f022d}, !- Handle
  1.25,                                   !- Heating Sizing Factor
  1.15;                                   !- Cooling Sizing Factor

OS:Timestep,
  {48d2f24a-895c-4b29-8b96-2875a9b8a37b}, !- Handle
  4;                                      !- Number of Timesteps per Hour

OS:ShadowCalculation,
  {934bdac4-914b-475a-8d55-6df0a87560fe}, !- Handle
  PolygonClipping,                        !- Shading Calculation Method
  ,                                       !- Shading Calculation Update Frequency Method
  20,                                     !- Shading Calculation Update Frequency
  15000,                                  !- Maximum Figures in Shadow Overlap Calculations
  ,                                       !- Polygon Clipping Algorithm
  512,                                    !- Pixel Counting Resolution
  ,                                       !- Sky Diffuse Modeling Algorithm
  No,                                     !- Output External Shading Calculation Results
  No,                                     !- Disable Self-Shading Within Shading Zone Groups
  No;                                     !- Disable Self-Shading From Shading Zone Groups to Other Zones

OS:HeatBalanceAlgorithm,
  {87981a4f-451d-41f9-b8a9-010a1008169d}, !- Handle
  ConductionTransferFunction,             !- Algorithm
  200;                                    !- Surface Temperature Upper Limit {C}

OS:RunPeriod,
  {28694e3f-aa2d-4b59-8b2e-9174cfb7ee9d}, !- Handle
  Run Period 1,                           !- Name
  1,                                      !- Begin Month
  1,                                      !- Begin Day of Month
  12,                                     !- End Month
  31,                                     !- End Day of Month
  ,                                       !- Use Weather File Holidays and Special Days
  ,                                       !- Use Weather File Daylight Saving Period
  ,                                       !- Apply Weekend Holiday Rule
  ,                                       !- Use Weather File Rain Indicators
  ,                                       !- Use Weather File Snow Indicators
  ;                                       !- Number of Times Runperiod to be Repeated

OS:LifeCycleCost:Parameters,
  {3d9de274-0264-4684-9a8c-c3888ee856d6}, !- Handle
  ,                                       !- Analysis Type
  ,                                       !- Discounting Convention
  ,                                       !- Inflation Approach
  ,                                       !- Real Discount Rate
  ,                                       !- Nominal Discount Rate
  ,                                       !- Inflation
  ,                                       !- Base Date Month
  ,                                       !- Base Date Year
  ,                                       !- Service Date Month
  ,                                       !- Service Date Year
  ;                                       !- Length of Study Period in Years

OS:WeatherFile,
  {e0403a4a-b9d9-4781-9bc6-fbe28c121ec7}, !- Handle
  Dover Afb,                              !- City
  DE,                                     !- State Province Region
  USA,                                    !- Country
  customized weather file,                !- Data Source
  724088,                                 !- WMO Number
  39.12,                                  !- Latitude {deg}
  -75.47,                                 !- Longitude {deg}
  -5,                                     !- Time Zone {hr}
  9,                                      !- Elevation {m}
  /weather/G1000010.epw,                  !- Url
  226BE93E,                               !- Checksum
  ,                                       !- Start Date Actual Year
  Friday;                                 !- Start Day of Week

OS:Site:WaterMainsTemperature,
  {da33bd29-cd39-48ae-b7f7-c722755bcac8}, !- Handle
  Correlation,                            !- Calculation Method
  ,                                       !- Temperature Schedule Name
  13.8483333333333,                       !- Annual Average Outdoor Air Temperature {C}
  25.35;                                  !- Maximum Difference In Monthly Average Outdoor Air Temperatures {deltaC}

OS:SizingPeriod:DesignDay,
  {0cfad1bc-b31a-4b00-a493-748f0d00a425}, !- Handle
  Dover Afb Ann Clg .4% Condns DB=>MWB 1, !- Name
  32.8,                                   !- Maximum Dry-Bulb Temperature {C}
  8.7,                                    !- Daily Dry-Bulb Temperature Range {deltaC}
  101217,                                 !- Barometric Pressure {Pa}
  4.6,                                    !- Wind Speed {m/s}
  230,                                    !- Wind Direction {deg}
  ,                                       !- Sky Clearness
  No,                                     !- Rain Indicator
  No,                                     !- Snow Indicator
  21,                                     !- Day of Month
  8,                                      !- Month
  SummerDesignDay,                        !- Day Type
  No,                                     !- Daylight Saving Time Indicator
  Wetbulb,                                !- Humidity Condition Type
  ,                                       !- Humidity Condition Day Schedule Name
  24.2,                                   !- Wetbulb or DewPoint at Maximum Dry-Bulb {C}
  ,                                       !- Humidity Ratio at Maximum Dry-Bulb {kgWater/kgDryAir}
  ,                                       !- Enthalpy at Maximum Dry-Bulb {J/kg}
  DefaultMultipliers,                     !- Dry-Bulb Temperature Range Modifier Type
  ,                                       !- Dry-Bulb Temperature Range Modifier Day Schedule Name
  ASHRAETau,                              !- Solar Model Indicator
  ,                                       !- Beam Solar Day Schedule Name
  ,                                       !- Diffuse Solar Day Schedule Name
  0.442,                                  !- ASHRAE Clear Sky Optical Depth for Beam Irradiance {dimensionless}
  2.185;                                  !- ASHRAE Clear Sky Optical Depth for Diffuse Irradiance {dimensionless}

OS:SizingPeriod:DesignDay,
  {93b710c7-77c4-406d-8d98-4222f752ef96}, !- Handle
  Dover Afb Ann Clg .4% Condns WB=>MDB 1, !- Name
  30.3,                                   !- Maximum Dry-Bulb Temperature {C}
  8.7,                                    !- Daily Dry-Bulb Temperature Range {deltaC}
  101217,                                 !- Barometric Pressure {Pa}
  4.6,                                    !- Wind Speed {m/s}
  230,                                    !- Wind Direction {deg}
  ,                                       !- Sky Clearness
  No,                                     !- Rain Indicator
  No,                                     !- Snow Indicator
  21,                                     !- Day of Month
  8,                                      !- Month
  SummerDesignDay,                        !- Day Type
  No,                                     !- Daylight Saving Time Indicator
  Wetbulb,                                !- Humidity Condition Type
  ,                                       !- Humidity Condition Day Schedule Name
  25.8,                                   !- Wetbulb or DewPoint at Maximum Dry-Bulb {C}
  ,                                       !- Humidity Ratio at Maximum Dry-Bulb {kgWater/kgDryAir}
  ,                                       !- Enthalpy at Maximum Dry-Bulb {J/kg}
  DefaultMultipliers,                     !- Dry-Bulb Temperature Range Modifier Type
  ,                                       !- Dry-Bulb Temperature Range Modifier Day Schedule Name
  ASHRAETau,                              !- Solar Model Indicator
  ,                                       !- Beam Solar Day Schedule Name
  ,                                       !- Diffuse Solar Day Schedule Name
  0.442,                                  !- ASHRAE Clear Sky Optical Depth for Beam Irradiance {dimensionless}
  2.185;                                  !- ASHRAE Clear Sky Optical Depth for Diffuse Irradiance {dimensionless}

OS:SizingPeriod:DesignDay,
  {e62c572d-68f7-432f-a771-8dd6b8e2418f}, !- Handle
  Dover Afb Ann Htg 99.6% Condns DB 1,    !- Name
  -9.1,                                   !- Maximum Dry-Bulb Temperature {C}
  0,                                      !- Daily Dry-Bulb Temperature Range {deltaC}
  101217,                                 !- Barometric Pressure {Pa}
  4.8,                                    !- Wind Speed {m/s}
  300,                                    !- Wind Direction {deg}
  0,                                      !- Sky Clearness
  No,                                     !- Rain Indicator
  No,                                     !- Snow Indicator
  21,                                     !- Day of Month
  1,                                      !- Month
  WinterDesignDay,                        !- Day Type
  No,                                     !- Daylight Saving Time Indicator
  Wetbulb,                                !- Humidity Condition Type
  ,                                       !- Humidity Condition Day Schedule Name
  -9.1,                                   !- Wetbulb or DewPoint at Maximum Dry-Bulb {C}
  ,                                       !- Humidity Ratio at Maximum Dry-Bulb {kgWater/kgDryAir}
  ,                                       !- Enthalpy at Maximum Dry-Bulb {J/kg}
  DefaultMultipliers,                     !- Dry-Bulb Temperature Range Modifier Type
  ,                                       !- Dry-Bulb Temperature Range Modifier Day Schedule Name
  ASHRAEClearSky;                         !- Solar Model Indicator

OS:SizingPeriod:DesignDay,
  {a3331ddc-25fc-451d-b5a5-70b9c8d4925e}, !- Handle
  Dover Afb August .4% Condns DB=>MCWB 1, !- Name
  34.8,                                   !- Maximum Dry-Bulb Temperature {C}
  8.7,                                    !- Daily Dry-Bulb Temperature Range {deltaC}
  101217,                                 !- Barometric Pressure {Pa}
  4.6,                                    !- Wind Speed {m/s}
  230,                                    !- Wind Direction {deg}
  ,                                       !- Sky Clearness
  No,                                     !- Rain Indicator
  No,                                     !- Snow Indicator
  21,                                     !- Day of Month
  8,                                      !- Month
  SummerDesignDay,                        !- Day Type
  No,                                     !- Daylight Saving Time Indicator
  Wetbulb,                                !- Humidity Condition Type
  ,                                       !- Humidity Condition Day Schedule Name
  25.3,                                   !- Wetbulb or DewPoint at Maximum Dry-Bulb {C}
  ,                                       !- Humidity Ratio at Maximum Dry-Bulb {kgWater/kgDryAir}
  ,                                       !- Enthalpy at Maximum Dry-Bulb {J/kg}
  DefaultMultipliers,                     !- Dry-Bulb Temperature Range Modifier Type
  ,                                       !- Dry-Bulb Temperature Range Modifier Day Schedule Name
  ASHRAETau,                              !- Solar Model Indicator
  ,                                       !- Beam Solar Day Schedule Name
  ,                                       !- Diffuse Solar Day Schedule Name
  0.442,                                  !- ASHRAE Clear Sky Optical Depth for Beam Irradiance {dimensionless}
  2.185;                                  !- ASHRAE Clear Sky Optical Depth for Diffuse Irradiance {dimensionless}

OS:SizingPeriod:DesignDay,
  {7694bffc-e8f5-485f-abbe-b5c8549cb249}, !- Handle
  Dover Afb October .4% Condns DB=>MCWB 1, !- Name
  27.9,                                   !- Maximum Dry-Bulb Temperature {C}
  9.4,                                    !- Daily Dry-Bulb Temperature Range {deltaC}
  101217,                                 !- Barometric Pressure {Pa}
  4.6,                                    !- Wind Speed {m/s}
  230,                                    !- Wind Direction {deg}
  ,                                       !- Sky Clearness
  No,                                     !- Rain Indicator
  No,                                     !- Snow Indicator
  21,                                     !- Day of Month
  10,                                     !- Month
  SummerDesignDay,                        !- Day Type
  No,                                     !- Daylight Saving Time Indicator
  Wetbulb,                                !- Humidity Condition Type
  ,                                       !- Humidity Condition Day Schedule Name
  21.4,                                   !- Wetbulb or DewPoint at Maximum Dry-Bulb {C}
  ,                                       !- Humidity Ratio at Maximum Dry-Bulb {kgWater/kgDryAir}
  ,                                       !- Enthalpy at Maximum Dry-Bulb {J/kg}
  DefaultMultipliers,                     !- Dry-Bulb Temperature Range Modifier Type
  ,                                       !- Dry-Bulb Temperature Range Modifier Day Schedule Name
  ASHRAETau,                              !- Solar Model Indicator
  ,                                       !- Beam Solar Day Schedule Name
  ,                                       !- Diffuse Solar Day Schedule Name
  0.354,                                  !- ASHRAE Clear Sky Optical Depth for Beam Irradiance {dimensionless}
  2.473;                                  !- ASHRAE Clear Sky Optical Depth for Diffuse Irradiance {dimensionless}

OS:SizingPeriod:DesignDay,
  {d143ffd0-c54f-4872-b7af-f8bd90155863}, !- Handle
  Dover Afb September .4% Condns DB=>MCWB 1, !- Name
  31.1,                                   !- Maximum Dry-Bulb Temperature {C}
  9,                                      !- Daily Dry-Bulb Temperature Range {deltaC}
  101217,                                 !- Barometric Pressure {Pa}
  4.6,                                    !- Wind Speed {m/s}
  230,                                    !- Wind Direction {deg}
  ,                                       !- Sky Clearness
  No,                                     !- Rain Indicator
  No,                                     !- Snow Indicator
  21,                                     !- Day of Month
  9,                                      !- Month
  SummerDesignDay,                        !- Day Type
  No,                                     !- Daylight Saving Time Indicator
  Wetbulb,                                !- Humidity Condition Type
  ,                                       !- Humidity Condition Day Schedule Name
  22.6,                                   !- Wetbulb or DewPoint at Maximum Dry-Bulb {C}
  ,                                       !- Humidity Ratio at Maximum Dry-Bulb {kgWater/kgDryAir}
  ,                                       !- Enthalpy at Maximum Dry-Bulb {J/kg}
  DefaultMultipliers,                     !- Dry-Bulb Temperature Range Modifier Type
  ,                                       !- Dry-Bulb Temperature Range Modifier Day Schedule Name
  ASHRAETau,                              !- Solar Model Indicator
  ,                                       !- Beam Solar Day Schedule Name
  ,                                       !- Diffuse Solar Day Schedule Name
  0.406,                                  !- ASHRAE Clear Sky Optical Depth for Beam Irradiance {dimensionless}
  2.321;                                  !- ASHRAE Clear Sky Optical Depth for Diffuse Irradiance {dimensionless}

OS:ClimateZones,
  {f766ff2f-c0cf-4e87-a47e-e342d8978a70}, !- Handle
  ASHRAE,                                 !- Climate Zone Institution Name 1
  ANSI/ASHRAE Standard 169,               !- Climate Zone Document Name 1
  2006,                                   !- Climate Zone Document Year 1
  ASHRAE 169-2013-4A;                     !- Climate Zone Value 1

OS:RunPeriodControl:DaylightSavingTime,
  {cfdc037c-45f3-4baa-b2b3-e2728411ec99}, !- Handle
  2nd Sunday in March,                    !- Start Date
  1st Sunday in November;                 !- End Date

OS:YearDescription,
  {97817662-aaa7-40f0-8a1b-87aecef0774e}, !- Handle
  2018,                                   !- Calendar Year
  ,                                       !- Day of Week for Start Day
  ;                                       !- Is Leap Year

OS:Building,
  {7901c39a-b6e5-48e5-9e9c-5f1ec5d5531f}, !- Handle
  ComStock DOE Ref 1980-2004|Warehouse,   !- Name
  ,                                       !- Building Sector Type
  225,                                    !- North Axis {deg}
  ,                                       !- Nominal Floor to Floor Height {m}
  ,                                       !- Space Type Name
  {d49ee925-540b-4ebb-bf54-219ef8a24117}, !- Default Construction Set Name
  {5a805610-ba91-44c3-bd59-86eeb13fe369}, !- Default Schedule Set Name
  ,                                       !- Standards Number of Stories
  ,                                       !- Standards Number of Above Ground Stories
  ,                                       !- Standards Template
  Warehouse;                              !- Standards Building Type

OS:AdditionalProperties,
  {351c9b2c-9025-43f4-9f2b-8184d657509d}, !- Handle
  {7901c39a-b6e5-48e5-9e9c-5f1ec5d5531f}, !- Object Name
  Building,                               !- Feature Name 1
  String,                                 !- Feature Data Type 1
  1930,                                   !- Feature Value 1
  Soil Conductivity,                      !- Feature Name 2
  Double,                                 !- Feature Data Type 2
  1.1000000000000001,                     !- Feature Value 2
  Undisturbed Ground Temperature,         !- Feature Name 3
  Double,                                 !- Feature Data Type 3
  14.699999999999999,                     !- Feature Value 3
  airtightness,                           !- Feature Name 4
  String,                                 !- Feature Data Type 4
  10.0,                                   !- Feature Value 4
  american_housing_survey_region,         !- Feature Name 5
  String,                                 !- Feature Data Type 5
  Non-CBSA South Atlantic,                !- Feature Value 5
  aspect_ratio,                           !- Feature Name 6
  String,                                 !- Feature Data Type 6
  1,                                      !- Feature Value 6
  baseline_hvac_sizing,                   !- Feature Name 7
  String,                                 !- Feature Data Type 7
  hardsize,                               !- Feature Value 7
  baseline_window_type,                   !- Feature Name 8
  String,                                 !- Feature Data Type 8
  Double - LowE - Clear - Aluminum,       !- Feature Value 8
  building_shape,                         !- Feature Name 9
  String,                                 !- Feature Data Type 9
  2,                                      !- Feature Value 9
  building_size_lighting_tech,            !- Feature Name 10
  String,                                 !- Feature Data Type 10
  large,                                  !- Feature Value 10
  building_subtype,                       !- Feature Name 11
  String,                                 !- Feature Data Type 11
  NA,                                     !- Feature Value 11
  building_type,                          !- Feature Name 12
  String,                                 !- Feature Data Type 12
  warehouse,                              !- Feature Value 12
  cambium_grid_region,                    !- Feature Name 13
  String,                                 !- Feature Data Type 13
  RFCEc,                                  !- Feature Value 13
  census_division_name,                   !- Feature Name 14
  String,                                 !- Feature Data Type 14
  South Atlantic,                         !- Feature Value 14
  census_division_name_recs,              !- Feature Name 15
  String,                                 !- Feature Data Type 15
  South Atlantic,                         !- Feature Value 15
  census_region_name,                     !- Feature Name 16
  String,                                 !- Feature Data Type 16
  South,                                  !- Feature Value 16
  climate_zone,                           !- Feature Name 17
  String,                                 !- Feature Data Type 17
  4A,                                     !- Feature Value 17
  climate_zone_ashrae_2006,               !- Feature Name 18
  String,                                 !- Feature Data Type 18
  4A,                                     !- Feature Value 18
  climate_zone_building_america,          !- Feature Name 19
  String,                                 !- Feature Data Type 19
  Mixed-Humid,                            !- Feature Value 19
  cluster_id,                             !- Feature Name 20
  String,                                 !- Feature Data Type 20
  39,                                     !- Feature Value 20
  cluster_name,                           !- Feature Name 21
  String,                                 !- Feature Data Type 21
  the Washington DC to Philadelphia Area, !- Feature Value 21
  cook_broiler_counts,                    !- Feature Name 22
  String,                                 !- Feature Data Type 22
  0.0,                                    !- Feature Value 22
  cook_dining_type,                       !- Feature Name 23
  String,                                 !- Feature Data Type 23
  None,                                   !- Feature Value 23
  cook_fryers_counts,                     !- Feature Name 24
  String,                                 !- Feature Data Type 24
  0.0,                                    !- Feature Value 24
  cook_fuel_broiler,                      !- Feature Name 25
  String,                                 !- Feature Data Type 25
  Gas,                                    !- Feature Value 25
  cook_fuel_fryer,                        !- Feature Name 26
  String,                                 !- Feature Data Type 26
  Gas,                                    !- Feature Value 26
  cook_fuel_griddle,                      !- Feature Name 27
  String,                                 !- Feature Data Type 27
  Electric,                               !- Feature Value 27
  cook_fuel_oven,                         !- Feature Name 28
  String,                                 !- Feature Data Type 28
  Electric,                               !- Feature Value 28
  cook_fuel_range,                        !- Feature Name 29
  String,                                 !- Feature Data Type 29
  Gas,                                    !- Feature Value 29
  cook_fuel_steamer,                      !- Feature Name 30
  String,                                 !- Feature Data Type 30
  Electric,                               !- Feature Value 30
  cook_griddles_counts,                   !- Feature Name 31
  String,                                 !- Feature Data Type 31
  0.0,                                    !- Feature Value 31
  cook_ovens_counts,                      !- Feature Name 32
  String,                                 !- Feature Data Type 32
  0.0,                                    !- Feature Value 32
  cook_ranges_counts,                     !- Feature Name 33
  String,                                 !- Feature Data Type 33
  0.0,                                    !- Feature Value 33
  cook_steamers_counts,                   !- Feature Name 34
  String,                                 !- Feature Data Type 34
  0.0,                                    !- Feature Value 34
  county_id,                              !- Feature Name 35
  String,                                 !- Feature Data Type 35
  G1000010,                               !- Feature Value 35
  energy_code_compliance_during_original_building_construction, !- Feature Name 36
  String,                                 !- Feature Data Type 36
  comply,                                 !- Feature Value 36
  energy_code_compliance_exterior_lighting, !- Feature Name 37
  String,                                 !- Feature Data Type 37
  comply,                                 !- Feature Value 37
  energy_code_compliance_hvac,            !- Feature Name 38
  String,                                 !- Feature Data Type 38
  comply,                                 !- Feature Value 38
  energy_code_compliance_interior_equipment, !- Feature Name 39
  String,                                 !- Feature Data Type 39
  comply,                                 !- Feature Value 39
  energy_code_compliance_interior_lighting, !- Feature Name 40
  String,                                 !- Feature Data Type 40
  lead,                                   !- Feature Value 40
  energy_code_compliance_roof,            !- Feature Name 41
  String,                                 !- Feature Data Type 41
  comply,                                 !- Feature Value 41
  energy_code_compliance_service_water_heating, !- Feature Name 42
  String,                                 !- Feature Data Type 42
  comply,                                 !- Feature Value 42
  energy_code_compliance_walls,           !- Feature Name 43
  String,                                 !- Feature Data Type 43
  comply,                                 !- Feature Value 43
  energy_code_compliance_windows,         !- Feature Name 44
  String,                                 !- Feature Data Type 44
  comply,                                 !- Feature Value 44
  energy_code_followed_during_last_exterior_lighting_replacement, !- Feature Name 45
  String,                                 !- Feature Data Type 45
  ComStock 90.1-2010,                     !- Feature Value 45
  energy_code_followed_during_last_hvac_replacement, !- Feature Name 46
  String,                                 !- Feature Data Type 46
  ComStock DOE Ref 1980-2004,             !- Feature Value 46
  energy_code_followed_during_last_interior_equipment_replacement, !- Feature Name 47
  String,                                 !- Feature Data Type 47
  ComStock 90.1-2007,                     !- Feature Value 47
  energy_code_followed_during_last_interior_lighting_replacement, !- Feature Name 48
  String,                                 !- Feature Data Type 48
  ComStock 90.1-2019,                     !- Feature Value 48
  energy_code_followed_during_last_roof_replacement, !- Feature Name 49
  String,                                 !- Feature Data Type 49
  ComStock DOE Ref 1980-2004,             !- Feature Value 49
  energy_code_followed_during_last_service_water_heating_replacement, !- Feature Name 50
  String,                                 !- Feature Data Type 50
  ComStock DOE Ref 1980-2004,             !- Feature Value 50
  energy_code_followed_during_last_walls_replacement, !- Feature Name 51
  String,                                 !- Feature Data Type 51
  ComStock DOE Ref 1980-2004,             !- Feature Value 51
  energy_code_followed_during_last_windows_replacement, !- Feature Name 52
  String,                                 !- Feature Data Type 52
  ComStock DOE Ref 1980-2004,             !- Feature Value 52
  energy_code_followed_during_original_building_construction, !- Feature Name 53
  String,                                 !- Feature Data Type 53
  ComStock DOE Ref 1980-2004,             !- Feature Value 53
  energy_code_in_force_during_last_exterior_lighting_replacement, !- Feature Name 54
  String,                                 !- Feature Data Type 54
  ComStock 90.1-2010,                     !- Feature Value 54
  energy_code_in_force_during_last_hvac_replacement, !- Feature Name 55
  String,                                 !- Feature Data Type 55
  ComStock DOE Ref 1980-2004,             !- Feature Value 55
  energy_code_in_force_during_last_interior_equipment_replacement, !- Feature Name 56
  String,                                 !- Feature Data Type 56
  ComStock 90.1-2007,                     !- Feature Value 56