
OS:Version,
  {775c9f22-bc1d-4f56-85b7-8b749b9c80d2}, !- Handle
  2.7.1;                                  !- Version Identifier

OS:WeatherFile,
  {5a3305c0-303d-46f5-bb3e-2cc11cf96969}, !- Handle
  CA_LOS-ANGELES-DOWNTOWN-,               !- City
  -,                                      !- State Province Region
  USA,                                    !- Country
  Custom-722874,                          !- Data Source
  722874,                                 !- WMO Number
  34.03,                                  !- Latitude {deg}
  -118.3,                                 !- Longitude {deg}
  -8,                                     !- Time Zone {hr}
  56,                                     !- Elevation {m}
  file:////weather/CA_LOS-ANGELES-DOWNTOWN-USC_722874S_12.epw, !- Url
  288AE598;                               !- Checksum

OS:RunPeriodControl:DaylightSavingTime,
  {b0a2b5cf-b5e6-4c38-bfca-4d3738bded9e}, !- Handle
  2nd Sunday in March,                    !- Start Date
  1st Sunday in November;                 !- End Date

OS:YearDescription,
  {cf5052b8-c68c-4b28-9131-bb1f406ea1f6}, !- Handle
  2015,                                   !- Calendar Year
  ,                                       !- Day of Week for Start Day
  ;                                       !- Is Leap Year

OS:Timestep,
  {e35c5471-e26a-48ea-84a9-ecb5fb5bae70}, !- Handle
  4;                                      !- Number of Timesteps per Hour

OS:RunPeriod,
  {1d880a84-e0f2-4756-847b-89c0869ce43b}, !- Handle
  Run Period 1,                           !- Name
  1,                                      !- Begin Month
  1,                                      !- Begin Day of Month
  12,                                     !- End Month
  30,                                     !- End Day of Month
  ,                                       !- Use Weather File Holidays and Special Days
  ,                                       !- Use Weather File Daylight Saving Period
  ,                                       !- Apply Weekend Holiday Rule
  ,                                       !- Use Weather File Rain Indicators
  ,                                       !- Use Weather File Snow Indicators
  ;                                       !- Number of Times Runperiod to be Repeated

OS:Site,
  {70ada41b-466f-4db6-9a65-17f68613a725}, !- Handle
  CA_LOS-ANGELES-DOWNTOWN-_-_USA,         !- Name
  34.03,                                  !- Latitude {deg}
  -118.3,                                 !- Longitude {deg}
  -8,                                     !- Time Zone {hr}
  56,                                     !- Elevation {m}
  City;                                   !- Terrain

OS:Site:WaterMainsTemperature,
  {f5a8985d-2e1f-40cd-b2ba-90f6fc3ad043}, !- Handle
  Correlation,                            !- Calculation Method
  ,                                       !- Temperature Schedule Name
  17.9083333333333,                       !- Annual Average Outdoor Air Temperature {C}
  10.6;                                   !- Maximum Difference In Monthly Average Outdoor Air Temperatures {deltaC}

OS:SizingPeriod:DesignDay,
  {17831ee7-03af-4537-a8af-bbe15070389f}, !- Handle
  CA_LOS-ANGELES-DOWNTOWN- Ann Clg .4% Condns DB=>MWB 1, !- Name
  32.8,                                   !- Maximum Dry-Bulb Temperature {C}
  9.7,                                    !- Daily Dry-Bulb Temperature Range {deltaC}
  18.9,                                   !- Humidity Indicating Conditions at Maximum Dry-Bulb
  100654,                                 !- Barometric Pressure {Pa}
  1.5,                                    !- Wind Speed {m/s}
  0,                                      !- Wind Direction {deg}
  0,                                      !- Sky Clearness
  0,                                      !- Rain Indicator
  0,                                      !- Snow Indicator
  21,                                     !- Day of Month
  8,                                      !- Month
  SummerDesignDay,                        !- Day Type
  0,                                      !- Daylight Saving Time Indicator
  Wetbulb,                                !- Humidity Indicating Type
  ,                                       !- Humidity Indicating Day Schedule Name
  DefaultMultipliers,                     !- Dry-Bulb Temperature Range Modifier Type
  ,                                       !- Dry-Bulb Temperature Range Modifier Schedule Name
  ASHRAETau,                              !- Solar Model Indicator
  ,                                       !- Beam Solar Day Schedule Name
  ,                                       !- Diffuse Solar Day Schedule Name
  0.361,                                  !- ASHRAE Taub {dimensionless}
  2.436;                                  !- ASHRAE Taud {dimensionless}

OS:SizingPeriod:DesignDay,
  {166b834f-52a3-4f05-a1d5-fb1fc6e97c00}, !- Handle
  CA_LOS-ANGELES-DOWNTOWN- Ann Clg .4% Condns WB=>MDB 1, !- Name
  29.2,                                   !- Maximum Dry-Bulb Temperature {C}
  9.7,                                    !- Daily Dry-Bulb Temperature Range {deltaC}
  22,                                     !- Humidity Indicating Conditions at Maximum Dry-Bulb
  100654,                                 !- Barometric Pressure {Pa}
  1.5,                                    !- Wind Speed {m/s}
  0,                                      !- Wind Direction {deg}
  0,                                      !- Sky Clearness
  0,                                      !- Rain Indicator
  0,                                      !- Snow Indicator
  21,                                     !- Day of Month
  8,                                      !- Month
  SummerDesignDay,                        !- Day Type
  0,                                      !- Daylight Saving Time Indicator
  Wetbulb,                                !- Humidity Indicating Type
  ,                                       !- Humidity Indicating Day Schedule Name
  DefaultMultipliers,                     !- Dry-Bulb Temperature Range Modifier Type
  ,                                       !- Dry-Bulb Temperature Range Modifier Schedule Name
  ASHRAETau,                              !- Solar Model Indicator
  ,                                       !- Beam Solar Day Schedule Name
  ,                                       !- Diffuse Solar Day Schedule Name
  0.361,                                  !- ASHRAE Taub {dimensionless}
  2.436;                                  !- ASHRAE Taud {dimensionless}

OS:SizingPeriod:DesignDay,
  {09dd688e-c986-4043-9720-1eeb2a1c1f05}, !- Handle
  CA_LOS-ANGELES-DOWNTOWN- Ann Htg 99.6% Condns DB 1, !- Name
  6.2,                                    !- Maximum Dry-Bulb Temperature {C}
  0,                                      !- Daily Dry-Bulb Temperature Range {deltaC}
  6.2,                                    !- Humidity Indicating Conditions at Maximum Dry-Bulb
  100654,                                 !- Barometric Pressure {Pa}
  0.2,                                    !- Wind Speed {m/s}
  0,                                      !- Wind Direction {deg}
  0,                                      !- Sky Clearness
  0,                                      !- Rain Indicator
  0,                                      !- Snow Indicator
  21,                                     !- Day of Month
  12,                                     !- Month
  WinterDesignDay,                        !- Day Type
  0,                                      !- Daylight Saving Time Indicator
  Wetbulb,                                !- Humidity Indicating Type
  ,                                       !- Humidity Indicating Day Schedule Name
  DefaultMultipliers,                     !- Dry-Bulb Temperature Range Modifier Type
  ,                                       !- Dry-Bulb Temperature Range Modifier Schedule Name
  ASHRAEClearSky;                         !- Solar Model Indicator

OS:ClimateZones,
  {f2b8328b-8950-405e-8d1a-bbf016e6bdc7}, !- Handle
  ,                                       !- Active Institution
  ,                                       !- Active Year
  CEC,                                    !- Climate Zone Institution Name 1
  California Climate Zone Descriptions,   !- Climate Zone Document Name 1
  1995,                                   !- Climate Zone Document Year 1
  8;                                      !- Climate Zone Value 1

OS:SpaceType,
  {61ca0e72-9e08-49d6-8d04-486ed7aa2faf}, !- Handle
  OfS Hall - DEER 1985,                   !- Name
  ,                                       !- Default Construction Set Name
  {4fe38052-cef7-4827-bf60-f53c347ce3eb}, !- Default Schedule Set Name
  ,                                       !- Group Rendering Name
  {5b0806fe-d89d-4d8b-aed8-f9fa67bef141}, !- Design Specification Outdoor Air Object Name
  ,                                       !- Standards Template
  OfS,                                    !- Standards Building Type
  Hall;                                   !- Standards Space Type

OS:SpaceType,
  {31c08ab0-e9ee-4ea1-b614-d8f0148d85fa}, !- Handle
  OfS OfficeSmall - DEER 1985,            !- Name
  ,                                       !- Default Construction Set Name
  {66349429-86ec-4c51-bef9-fcacba9a60cd}, !- Default Schedule Set Name
  ,                                       !- Group Rendering Name
  {33e921cb-cb32-41a3-b1ce-e0ff6b68f463}, !- Design Specification Outdoor Air Object Name
  ,                                       !- Standards Template
  OfS,                                    !- Standards Building Type
  OfficeSmall;                            !- Standards Space Type

OS:Building,
  {dc1ee298-8250-479a-946d-b4553d4752fb}, !- Handle
  DEER 1985|OfS,                          !- Name
  ,                                       !- Building Sector Type
  315,                                    !- North Axis {deg}
  ,                                       !- Nominal Floor to Floor Height {m}
  ,                                       !- Space Type Name
  {e6fe0e40-30fd-4003-a27f-4a1aa6e859bb}, !- Default Construction Set Name
  {675f478f-f2fc-4101-bb87-e352022ed890}, !- Default Schedule Set Name
  ,                                       !- Standards Number of Stories
  ,                                       !- Standards Number of Above Ground Stories
  ,                                       !- Standards Template
  OfS;                                    !- Standards Building Type

OS:BuildingStory,
  {72770da5-5440-4539-9ad4-8e996fce4ad6}, !- Handle
  Story Ground,                           !- Name
  0,                                      !- Nominal Z Coordinate {m}
  3.048,                                  !- Nominal Floor to Floor Height {m}
  ,                                       !- Default Construction Set Name
  ,                                       !- Default Schedule Set Name
  ;                                       !- Group Rendering Name

OS:Space,
  {a64c130b-7095-4471-8245-0e1858fc44e4}, !- Handle
  OfS OfficeSmall A end_a - Story Ground, !- Name
  {31c08ab0-e9ee-4ea1-b614-d8f0148d85fa}, !- Space Type Name
  ,                                       !- Default Construction Set Name
  ,                                       !- Default Schedule Set Name
  -0,                                     !- Direction of Relative North {deg}
  -8.34729177637873,                      !- X Origin {m}
  -8.34729177637873,                      !- Y Origin {m}
  0,                                      !- Z Origin {m}
  {72770da5-5440-4539-9ad4-8e996fce4ad6}, !- Building Story Name
  {1c7e15fa-450b-475e-973f-793c3e57968f}; !- Thermal Zone Name

OS:Surface,
  {5c11f3eb-fec9-475e-9b65-7016edd3e340}, !- Handle
  Surface 1,                              !- Name
  Floor,                                  !- Surface Type
  {44f6a1ff-4aa0-4e46-aabb-9fbc91ba94e4}, !- Construction Name
  {a64c130b-7095-4471-8245-0e1858fc44e4}, !- Space Name
  Ground,                                 !- Outside Boundary Condition
  ,                                       !- Outside Boundary Condition Object
  NoSun,                                  !- Sun Exposure
  NoWind,                                 !- Wind Exposure
  ,                                       !- View Factor to Ground
  ,                                       !- Number of Vertices
  1.77635683940025e-15, 1.77635683940025e-15, 0, !- X,Y,Z Vertex 1 {m}
  1.77635683940025e-15, 4.572, 0,         !- X,Y,Z Vertex 2 {m}
  4.572, 4.572, 0,                        !- X,Y,Z Vertex 3 {m}
  4.572, 1.77635683940025e-15, 0;         !- X,Y,Z Vertex 4 {m}

OS:Surface,
  {9fdc31d6-221b-42a7-a774-8116ca8eaea7}, !- Handle
  Surface 2,                              !- Name
  Wall,                                   !- Surface Type
  {78101a8f-1402-425a-9507-4225906b51bd}, !- Construction Name
  {a64c130b-7095-4471-8245-0e1858fc44e4}, !- Space Name
  Outdoors,                               !- Outside Boundary Condition
  ,                                       !- Outside Boundary Condition Object
  SunExposed,                             !- Sun Exposure
  WindExposed,                            !- Wind Exposure
  ,                                       !- View Factor to Ground
  ,                                       !- Number of Vertices
  1.77635683940025e-15, 4.572, 3.048,     !- X,Y,Z Vertex 1 {m}
  1.77635683940025e-15, 4.572, 0,         !- X,Y,Z Vertex 2 {m}
  1.77635683940025e-15, 1.77635683940025e-15, 0, !- X,Y,Z Vertex 3 {m}
  1.77635683940025e-15, 1.77635683940025e-15, 3.048; !- X,Y,Z Vertex 4 {m}

OS:Surface,
  {681e4727-fca9-4c25-bd4a-7e47276d30be}, !- Handle
  Surface 3,                              !- Name
  Wall,                                   !- Surface Type
  ,                                       !- Construction Name
  {a64c130b-7095-4471-8245-0e1858fc44e4}, !- Space Name
  Surface,                                !- Outside Boundary Condition
  {5423a5e6-5276-4c34-a57b-eb32a6f2b8b2}, !- Outside Boundary Condition Object
  NoSun,                                  !- Sun Exposure
  NoWind,                                 !- Wind Exposure
  ,                                       !- View Factor to Ground
  ,                                       !- Number of Vertices
  4.572, 4.572, 3.048,                    !- X,Y,Z Vertex 1 {m}
  4.572, 4.572, 0,                        !- X,Y,Z Vertex 2 {m}
  1.77635683940025e-15, 4.572, 0,         !- X,Y,Z Vertex 3 {m}
  1.77635683940025e-15, 4.572, 3.048;     !- X,Y,Z Vertex 4 {m}

OS:Surface,
  {b4df301b-820e-413f-b54e-13f157870a79}, !- Handle
  Surface 4,                              !- Name
  Wall,                                   !- Surface Type
  ,                                       !- Construction Name
  {a64c130b-7095-4471-8245-0e1858fc44e4}, !- Space Name
  Surface,                                !- Outside Boundary Condition
  {a16ec2fb-ff2b-4c78-9245-a0f8078e5e57}, !- Outside Boundary Condition Object
  NoSun,                                  !- Sun Exposure
  NoWind,                                 !- Wind Exposure
  ,                                       !- View Factor to Ground
  ,                                       !- Number of Vertices
  4.572, 1.77635683940025e-15, 3.048,     !- X,Y,Z Vertex 1 {m}
  4.572, 1.77635683940025e-15, 0,         !- X,Y,Z Vertex 2 {m}
  4.572, 4.572, 0,                        !- X,Y,Z Vertex 3 {m}
  4.572, 4.572, 3.048;                    !- X,Y,Z Vertex 4 {m}

OS:Surface,
  {545805bd-ab18-4ad6-bdd5-da82e384d178}, !- Handle
  Surface 5,                              !- Name
  Wall,                                   !- Surface Type
  {78101a8f-1402-425a-9507-4225906b51bd}, !- Construction Name
  {a64c130b-7095-4471-8245-0e1858fc44e4}, !- Space Name
  Outdoors,                               !- Outside Boundary Condition
  ,                                       !- Outside Boundary Condition Object
  SunExposed,                             !- Sun Exposure
  WindExposed,                            !- Wind Exposure
  ,                                       !- View Factor to Ground
  ,                                       !- Number of Vertices
  1.77635683940025e-15, 1.77635683940025e-15, 3.048, !- X,Y,Z Vertex 1 {m}
  1.77635683940025e-15, 1.77635683940025e-15, 0, !- X,Y,Z Vertex 2 {m}
  4.572, 1.77635683940025e-15, 0,         !- X,Y,Z Vertex 3 {m}
  4.572, 1.77635683940025e-15, 3.048;     !- X,Y,Z Vertex 4 {m}

OS:Surface,
  {23337cf7-5424-4190-89fd-9f714d4672a7}, !- Handle
  Surface 6,                              !- Name
  RoofCeiling,                            !- Surface Type
  {41b44cb4-d154-419a-a268-d1e2369e0d0d}, !- Construction Name
  {a64c130b-7095-4471-8245-0e1858fc44e4}, !- Space Name
  Outdoors,                               !- Outside Boundary Condition
  ,                                       !- Outside Boundary Condition Object
  SunExposed,                             !- Sun Exposure
  WindExposed,                            !- Wind Exposure
  ,                                       !- View Factor to Ground
  ,                                       !- Number of Vertices
  4.572, 1.77635683940025e-15, 3.048,     !- X,Y,Z Vertex 1 {m}
  4.572, 4.572, 3.048,                    !- X,Y,Z Vertex 2 {m}
  1.77635683940025e-15, 4.572, 3.048,     !- X,Y,Z Vertex 3 {m}
  1.77635683940025e-15, 1.77635683940025e-15, 3.048; !- X,Y,Z Vertex 4 {m}

OS:ThermalZone,
  {1c7e15fa-450b-475e-973f-793c3e57968f}, !- Handle
  Zone OfS OfficeSmall A end_a - Story Ground, !- Name
  1,                                      !- Multiplier
  ,                                       !- Ceiling Height {m}
  ,                                       !- Volume {m3}
  ,                                       !- Floor Area {m2}
  ,                                       !- Zone Inside Convection Algorithm
  ,                                       !- Zone Outside Convection Algorithm
  ,                                       !- Zone Conditioning Equipment List Name
  {13ff0b7f-5c1d-4885-ba1a-9f235be3ebb4}, !- Zone Air Inlet Port List
  {6aff0a3b-ff3e-43d8-b682-37936a072ddf}, !- Zone Air Exhaust Port List
  {6185c9fb-a756-41f5-b4e3-0e52a8bb45e8}, !- Zone Air Node Name
  {6c8f066a-c0c0-4911-bdc1-d3ec08481a0b}, !- Zone Return Air Port List
  ,                                       !- Primary Daylighting Control Name
  ,                                       !- Fraction of Zone Controlled by Primary Daylighting Control
  ,                                       !- Secondary Daylighting Control Name
  ,                                       !- Fraction of Zone Controlled by Secondary Daylighting Control
  ,                                       !- Illuminance Map Name
  ,                                       !- Group Rendering Name
  {06b02017-e21e-4736-ba5b-b7d8bb9fdb86}, !- Thermostat Name
  No;                                     !- Use Ideal Air Loads

OS:Node,
  {f488794e-3862-41a9-b3c5-67b71c8ad6ca}, !- Handle
  Zone OfS OfficeSmall A end_a - Story Ground Zone Air Node, !- Name
  {6185c9fb-a756-41f5-b4e3-0e52a8bb45e8}, !- Inlet Port
  ;                                       !- Outlet Port

OS:Connection,
  {6185c9fb-a756-41f5-b4e3-0e52a8bb45e8}, !- Handle
  {4c121810-585e-4397-96ff-d21cabe4f847}, !- Name
  {1c7e15fa-450b-475e-973f-793c3e57968f}, !- Source Object
  11,                                     !- Outlet Port
  {f488794e-3862-41a9-b3c5-67b71c8ad6ca}, !- Target Object
  2;                                      !- Inlet Port

OS:PortList,
  {13ff0b7f-5c1d-4885-ba1a-9f235be3ebb4}, !- Handle
  {861bf42a-5c83-4c16-a293-93f6adb7e5d1}, !- Name
  {1c7e15fa-450b-475e-973f-793c3e57968f}, !- HVAC Component
  {006bbfd3-c8af-44d3-98cd-e4dd388c6150}, !- Port 1
  {4f1a54d9-c422-41c5-b446-28441bbc6a11}; !- Port 2

OS:PortList,
  {6aff0a3b-ff3e-43d8-b682-37936a072ddf}, !- Handle
  {b68fdae7-8b56-42eb-96fc-6a21e53ddba6}, !- Name
  {1c7e15fa-450b-475e-973f-793c3e57968f}, !- HVAC Component
  {7724ef72-d725-4152-be36-ef17f7c9dd27}; !- Port 1

OS:PortList,
  {6c8f066a-c0c0-4911-bdc1-d3ec08481a0b}, !- Handle
  {a3059892-d2ee-4172-a5f8-f7b16ceaf5c7}, !- Name
  {1c7e15fa-450b-475e-973f-793c3e57968f}, !- HVAC Component
  {c5271128-71f6-4d34-83d9-10b4580dde08}; !- Port 1

OS:Sizing:Zone,
  {8bbf7deb-3fb5-4dd4-9c4e-02e17d0bb0c8}, !- Handle
  {1c7e15fa-450b-475e-973f-793c3e57968f}, !- Zone or ZoneList Name
  SupplyAirTemperature,                   !- Zone Cooling Design Supply Air Temperature Input Method
  14,                                     !- Zone Cooling Design Supply Air Temperature {C}
  11.11,                                  !- Zone Cooling Design Supply Air Temperature Difference {deltaC}
  SupplyAirTemperature,                   !- Zone Heating Design Supply Air Temperature Input Method
  40,                                     !- Zone Heating Design Supply Air Temperature {C}
  11.11,                                  !- Zone Heating Design Supply Air Temperature Difference {deltaC}
  0.0085,                                 !- Zone Cooling Design Supply Air Humidity Ratio {kg-H2O/kg-air}
  0.008,                                  !- Zone Heating Design Supply Air Humidity Ratio {kg-H2O/kg-air}
  ,                                       !- Zone Heating Sizing Factor
  ,                                       !- Zone Cooling Sizing Factor
  DesignDay,                              !- Cooling Design Air Flow Method
  ,                                       !- Cooling Design Air Flow Rate {m3/s}
  ,                                       !- Cooling Minimum Air Flow per Zone Floor Area {m3/s-m2}
  ,                                       !- Cooling Minimum Air Flow {m3/s}
  ,                                       !- Cooling Minimum Air Flow Fraction
  DesignDay,                              !- Heating Design Air Flow Method
  ,                                       !- Heating Design Air Flow Rate {m3/s}
  ,                                       !- Heating Maximum Air Flow per Zone Floor Area {m3/s-m2}
  ,                                       !- Heating Maximum Air Flow {m3/s}
  ,                                       !- Heating Maximum Air Flow Fraction
  ,                                       !- Design Zone Air Distribution Effectiveness in Cooling Mode
  ,                                       !- Design Zone Air Distribution Effectiveness in Heating Mode
  No,                                     !- Account for Dedicated Outdoor Air System
  NeutralSupplyAir,                       !- Dedicated Outdoor Air System Control Strategy
  autosize,                               !- Dedicated Outdoor Air Low Setpoint Temperature for Design {C}
  autosize;                               !- Dedicated Outdoor Air High Setpoint Temperature for Design {C}

OS:ZoneHVAC:EquipmentList,
  {fda6af26-2ee3-4df0-b580-f9a6db365015}, !- Handle
  Zone OfS OfficeSmall A end_a - Story Ground Zone HVAC Equipment List, !- Name
  {1c7e15fa-450b-475e-973f-793c3e57968f}, !- Thermal Zone
  ,                                       !- Load Distribution Scheme
  {cf2c4c01-c5ee-405f-868d-2c85b06296ba}, !- Zone Equipment 1
  1,                                      !- Zone Equipment Cooling Sequence 1
  1,                                      !- Zone Equipment Heating or No-Load Sequence 1
  {8f9531a1-f902-464c-bc7a-f760d92e5f94}, !- Zone Equipment 2
  2,                                      !- Zone Equipment Cooling Sequence 2
  2;                                      !- Zone Equipment Heating or No-Load Sequence 2

OS:Space,
  {c0dcebbb-cc47-40e6-828f-9444751f754a}, !- Handle
  OfS OfficeSmall B end_a - Story Ground, !- Name
  {31c08ab0-e9ee-4ea1-b614-d8f0148d85fa}, !- Space Type Name
  ,                                       !- Default Construction Set Name
  ,                                       !- Default Schedule Set Name
  -0,                                     !- Direction of Relative North {deg}
  -8.34729177637873,                      !- X Origin {m}
  -3.77529177637873,                      !- Y Origin {m}
  0,                                      !- Z Origin {m}
  {72770da5-5440-4539-9ad4-8e996fce4ad6}, !- Building Story Name
  {ffa986db-3ac6-467f-8494-831953d0b6bd}; !- Thermal Zone Name

OS:Surface,
  {ed7c7800-ed6e-4c6c-8f6a-df7a5ad9eeb9}, !- Handle
  Surface 7,                              !- Name
  Floor,                                  !- Surface Type
  {44f6a1ff-4aa0-4e46-aabb-9fbc91ba94e4}, !- Construction Name
  {c0dcebbb-cc47-40e6-828f-9444751f754a}, !- Space Name
  Ground,                                 !- Outside Boundary Condition
  ,                                       !- Outside Boundary Condition Object
  NoSun,                                  !- Sun Exposure
  NoWind,                                 !- Wind Exposure
  ,                                       !- View Factor to Ground
  ,                                       !- Number of Vertices
  1.77635683940025e-15, 2.22044604925031e-15, 0, !- X,Y,Z Vertex 1 {m}
  1.77635683940025e-15, 7.55058355275746, 0, !- X,Y,Z Vertex 2 {m}
  4.572, 7.55058355275746, 0,             !- X,Y,Z Vertex 3 {m}
  4.572, 2.22044604925031e-15, 0;         !- X,Y,Z Vertex 4 {m}

OS:Surface,
  {aed54459-21f6-4c9f-95c8-2b5341b9b06b}, !- Handle
  Surface 8,                              !- Name
  Wall,                                   !- Surface Type
  {78101a8f-1402-425a-9507-4225906b51bd}, !- Construction Name
  {c0dcebbb-cc47-40e6-828f-9444751f754a}, !- Space Name
  Outdoors,                               !- Outside Boundary Condition
  ,                                       !- Outside Boundary Condition Object
  SunExposed,                             !- Sun Exposure
  WindExposed,                            !- Wind Exposure
  ,                                       !- View Factor to Ground
  ,                                       !- Number of Vertices
  1.77635683940025e-15, 7.55058355275746, 3.048, !- X,Y,Z Vertex 1 {m}
  1.77635683940025e-15, 7.55058355275746, 0, !- X,Y,Z Vertex 2 {m}
  1.77635683940025e-15, 2.22044604925031e-15, 0, !- X,Y,Z Vertex 3 {m}
  1.77635683940025e-15, 2.22044604925031e-15, 3.048; !- X,Y,Z Vertex 4 {m}

OS:Surface,
  {b4cf75ce-95a7-4050-9bd7-e4dc7fd68750}, !- Handle
  Surface 9,                              !- Name
  Wall,                                   !- Surface Type
  ,                                       !- Construction Name
  {c0dcebbb-cc47-40e6-828f-9444751f754a}, !- Space Name
  Surface,                                !- Outside Boundary Condition
  {fff3ef39-7d8d-463e-9840-727de5a8b6d0}, !- Outside Boundary Condition Object
  NoSun,                                  !- Sun Exposure
  NoWind,                                 !- Wind Exposure
  ,                                       !- View Factor to Ground
  ,                                       !- Number of Vertices
  4.572, 7.55058355275746, 3.048,         !- X,Y,Z Vertex 1 {m}
  4.572, 7.55058355275746, 0,             !- X,Y,Z Vertex 2 {m}
  1.77635683940025e-15, 7.55058355275746, 0, !- X,Y,Z Vertex 3 {m}
  1.77635683940025e-15, 7.55058355275746, 3.048; !- X,Y,Z Vertex 4 {m}

OS:Surface,
  {38abe9d4-bc41-43bc-aa7b-218016500181}, !- Handle
  Surface 10,                             !- Name
  Wall,                                   !- Surface Type
  ,                                       !- Construction Name
  {c0dcebbb-cc47-40e6-828f-9444751f754a}, !- Space Name
  Surface,                                !- Outside Boundary Condition
  {dfd395da-d1c3-4117-a0db-e8a9892138c0}, !- Outside Boundary Condition Object
  NoSun,                                  !- Sun Exposure
  NoWind,                                 !- Wind Exposure
  ,                                       !- View Factor to Ground
  ,                                       !- Number of Vertices
  4.572, 2.22044604925031e-15, 3.048,     !- X,Y,Z Vertex 1 {m}
  4.572, 2.22044604925031e-15, 0,         !- X,Y,Z Vertex 2 {m}
  4.572, 7.55058355275746, 0,             !- X,Y,Z Vertex 3 {m}
  4.572, 7.55058355275746, 3.048;         !- X,Y,Z Vertex 4 {m}

OS:Surface,
  {5423a5e6-5276-4c34-a57b-eb32a6f2b8b2}, !- Handle
  Surface 11,                             !- Name
  Wall,                                   !- Surface Type
  ,                                       !- Construction Name
  {c0dcebbb-cc47-40e6-828f-9444751f754a}, !- Space Name
  Surface,                                !- Outside Boundary Condition
  {681e4727-fca9-4c25-bd4a-7e47276d30be}, !- Outside Boundary Condition Object
  NoSun,                                  !- Sun Exposure
  NoWind,                                 !- Wind Exposure
  ,                                       !- View Factor to Ground
  ,                                       !- Number of Vertices
  1.77635683940025e-15, 2.22044604925031e-15, 3.048, !- X,Y,Z Vertex 1 {m}
  1.77635683940025e-15, 2.22044604925031e-15, 0, !- X,Y,Z Vertex 2 {m}
  4.572, 2.22044604925031e-15, 0,         !- X,Y,Z Vertex 3 {m}
  4.572, 2.22044604925031e-15, 3.048;     !- X,Y,Z Vertex 4 {m}

OS:Surface,
  {992ef7d4-8f3c-4257-b3ce-45398370a444}, !- Handle
  Surface 12,                             !- Name
  RoofCeiling,                            !- Surface Type
  {41b44cb4-d154-419a-a268-d1e2369e0d0d}, !- Construction Name
  {c0dcebbb-cc47-40e6-828f-9444751f754a}, !- Space Name
  Outdoors,                               !- Outside Boundary Condition
  ,                                       !- Outside Boundary Condition Object
  SunExposed,                             !- Sun Exposure
  WindExposed,                            !- Wind Exposure
  ,                                       !- View Factor to Ground
  ,                                       !- Number of Vertices
  4.572, 2.22044604925031e-15, 3.048,     !- X,Y,Z Vertex 1 {m}
  4.572, 7.55058355275746, 3.048,         !- X,Y,Z Vertex 2 {m}
  1.77635683940025e-15, 7.55058355275746, 3.048, !- X,Y,Z Vertex 3 {m}