
Version,
  23.2;                                   !- Version Identifier

Timestep,
  4;                                      !- Number of Timesteps per Hour

LifeCycleCost:Parameters,
  Life Cycle Cost Parameters,             !- Name
  EndOfYear,                              !- Discounting Convention
  ConstantDollar,                         !- Inflation Approach
  0.03,                                   !- Real Discount Rate
  ,                                       !- Nominal Discount Rate
  ,                                       !- Inflation
  ,                                       !- Base Date Month
  2011,                                   !- Base Date Year
  ,                                       !- Service Date Month
  2011,                                   !- Service Date Year
  25,                                     !- Length of Study Period in Years
  ,                                       !- Tax rate
  None;                                   !- Depreciation Method

LifeCycleCost:UsePriceEscalation,
  U.S. Avg  Commercial-Electricity,       !- Name
  Electricity,                            !- Resource
  2011,                                   !- Escalation Start Year
  January,                                !- Escalation Start Month
  0.9838,                                 !- Year Escalation 1
  0.9730,                                 !- Year Escalation 2
  0.9632,                                 !- Year Escalation 3
  0.9611,                                 !- Year Escalation 4
  0.9571,                                 !- Year Escalation 5
  0.9553,                                 !- Year Escalation 6
  0.9539,                                 !- Year Escalation 7
  0.9521,                                 !- Year Escalation 8
  0.9546,                                 !- Year Escalation 9
  0.9550,                                 !- Year Escalation 10
  0.9553,                                 !- Year Escalation 11
  0.9564,                                 !- Year Escalation 12
  0.9575,                                 !- Year Escalation 13
  0.9596,                                 !- Year Escalation 14
  0.9618,                                 !- Year Escalation 15
  0.9614,                                 !- Year Escalation 16
  0.9618,                                 !- Year Escalation 17
  0.9618,                                 !- Year Escalation 18
  0.9593,                                 !- Year Escalation 19
  0.9589,                                 !- Year Escalation 20
  0.9607,                                 !- Year Escalation 21
  0.9625,                                 !- Year Escalation 22
  0.9650,                                 !- Year Escalation 23
  0.9708,                                 !- Year Escalation 24
  0.9751,                                 !- Year Escalation 25
  0.9762,                                 !- Year Escalation 26
  0.9766,                                 !- Year Escalation 27
  0.9766,                                 !- Year Escalation 28
  0.9769,                                 !- Year Escalation 29
  0.9773;                                 !- Year Escalation 30

LifeCycleCost:UsePriceEscalation,
  U.S. Avg  Commercial-Distillate Oil,    !- Name
  FuelOilNo1,                             !- Resource
  2011,                                   !- Escalation Start Year
  January,                                !- Escalation Start Month
  0.9714,                                 !- Year Escalation 1
  0.9730,                                 !- Year Escalation 2
  0.9942,                                 !- Year Escalation 3
  1.0164,                                 !- Year Escalation 4
  1.0541,                                 !- Year Escalation 5
  1.0928,                                 !- Year Escalation 6
  1.1267,                                 !- Year Escalation 7
  1.1580,                                 !- Year Escalation 8
  1.1792,                                 !- Year Escalation 9
  1.1967,                                 !- Year Escalation 10
  1.2200,                                 !- Year Escalation 11
  1.2333,                                 !- Year Escalation 12
  1.2566,                                 !- Year Escalation 13
  1.2709,                                 !- Year Escalation 14
  1.2826,                                 !- Year Escalation 15
  1.2985,                                 !- Year Escalation 16
  1.3102,                                 !- Year Escalation 17
  1.3250,                                 !- Year Escalation 18
  1.3261,                                 !- Year Escalation 19
  1.3282,                                 !- Year Escalation 20
  1.3324,                                 !- Year Escalation 21
  1.3356,                                 !- Year Escalation 22
  1.3431,                                 !- Year Escalation 23
  1.3510,                                 !- Year Escalation 24
  1.3568,                                 !- Year Escalation 25
  1.3606,                                 !- Year Escalation 26
  1.3637,                                 !- Year Escalation 27
  1.3674,                                 !- Year Escalation 28
  1.3706,                                 !- Year Escalation 29
  1.3743;                                 !- Year Escalation 30

LifeCycleCost:UsePriceEscalation,
  U.S. Avg  Commercial-Residual Oil,      !- Name
  FuelOilNo2,                             !- Resource
  2011,                                   !- Escalation Start Year
  January,                                !- Escalation Start Month
  0.8469,                                 !- Year Escalation 1
  0.8257,                                 !- Year Escalation 2
  0.8681,                                 !- Year Escalation 3
  0.8988,                                 !- Year Escalation 4
  0.9289,                                 !- Year Escalation 5
  0.9604,                                 !- Year Escalation 6
  0.9897,                                 !- Year Escalation 7
  1.0075,                                 !- Year Escalation 8
  1.0314,                                 !- Year Escalation 9
  1.0554,                                 !- Year Escalation 10
  1.0861,                                 !- Year Escalation 11
  1.1278,                                 !- Year Escalation 12
  1.1497,                                 !- Year Escalation 13
  1.1620,                                 !- Year Escalation 14
  1.1743,                                 !- Year Escalation 15
  1.1852,                                 !- Year Escalation 16
  1.1948,                                 !- Year Escalation 17
  1.2037,                                 !- Year Escalation 18
  1.2071,                                 !- Year Escalation 19
  1.2119,                                 !- Year Escalation 20
  1.2139,                                 !- Year Escalation 21
  1.2194,                                 !- Year Escalation 22
  1.2276,                                 !- Year Escalation 23
  1.2365,                                 !- Year Escalation 24
  1.2420,                                 !- Year Escalation 25
  1.2461,                                 !- Year Escalation 26
  1.2509,                                 !- Year Escalation 27
  1.2550,                                 !- Year Escalation 28
  1.2591,                                 !- Year Escalation 29
  1.2638;                                 !- Year Escalation 30

LifeCycleCost:UsePriceEscalation,
  U.S. Avg  Commercial-Natural gas,       !- Name
  NaturalGas,                             !- Resource
  2011,                                   !- Escalation Start Year
  January,                                !- Escalation Start Month
  0.9823,                                 !- Year Escalation 1
  0.9557,                                 !- Year Escalation 2
  0.9279,                                 !- Year Escalation 3
  0.9257,                                 !- Year Escalation 4
  0.9346,                                 !- Year Escalation 5
  0.9412,                                 !- Year Escalation 6
  0.9512,                                 !- Year Escalation 7
  0.9645,                                 !- Year Escalation 8
  0.9856,                                 !- Year Escalation 9
  1.0067,                                 !- Year Escalation 10
  1.0222,                                 !- Year Escalation 11
  1.0410,                                 !- Year Escalation 12
  1.0610,                                 !- Year Escalation 13
  1.0787,                                 !- Year Escalation 14
  1.0942,                                 !- Year Escalation 15
  1.1098,                                 !- Year Escalation 16
  1.1220,                                 !- Year Escalation 17
  1.1308,                                 !- Year Escalation 18
  1.1386,                                 !- Year Escalation 19
  1.1486,                                 !- Year Escalation 20
  1.1619,                                 !- Year Escalation 21
  1.1763,                                 !- Year Escalation 22
  1.1918,                                 !- Year Escalation 23
  1.2118,                                 !- Year Escalation 24
  1.2284,                                 !- Year Escalation 25
  1.2439,                                 !- Year Escalation 26
  1.2605,                                 !- Year Escalation 27
  1.2772,                                 !- Year Escalation 28
  1.2938,                                 !- Year Escalation 29
  1.3115;                                 !- Year Escalation 30

LifeCycleCost:UsePriceEscalation,
  U.S. Avg  Commercial-Coal,              !- Name
  Coal,                                   !- Resource
  2011,                                   !- Escalation Start Year
  January,                                !- Escalation Start Month
  0.9970,                                 !- Year Escalation 1
  1.0089,                                 !- Year Escalation 2
  1.0089,                                 !- Year Escalation 3
  0.9941,                                 !- Year Escalation 4
  0.9941,                                 !- Year Escalation 5
  1.0000,                                 !- Year Escalation 6
  1.0030,                                 !- Year Escalation 7
  1.0059,                                 !- Year Escalation 8
  1.0089,                                 !- Year Escalation 9
  1.0119,                                 !- Year Escalation 10
  1.0148,                                 !- Year Escalation 11
  1.0178,                                 !- Year Escalation 12
  1.0208,                                 !- Year Escalation 13
  1.0267,                                 !- Year Escalation 14
  1.0297,                                 !- Year Escalation 15
  1.0356,                                 !- Year Escalation 16
  1.0415,                                 !- Year Escalation 17
  1.0534,                                 !- Year Escalation 18
  1.0564,                                 !- Year Escalation 19
  1.0593,                                 !- Year Escalation 20
  1.0653,                                 !- Year Escalation 21
  1.0712,                                 !- Year Escalation 22
  1.0742,                                 !- Year Escalation 23
  1.0801,                                 !- Year Escalation 24
  1.0831,                                 !- Year Escalation 25
  1.0831,                                 !- Year Escalation 26
  1.0861,                                 !- Year Escalation 27
  1.0890,                                 !- Year Escalation 28
  1.0920,                                 !- Year Escalation 29
  1.0950;                                 !- Year Escalation 30

Building,
  ComStock DOE Ref Pre-1980|LargeOffice,  !- Name
  90,                                     !- North Axis {deg}
  City,                                   !- Terrain
  ,                                       !- Loads Convergence Tolerance Value {W}
  ,                                       !- Temperature Convergence Tolerance Value {deltaC}
  ,                                       !- Solar Distribution
  ,                                       !- Maximum Number of Warmup Days
  ;                                       !- Minimum Number of Warmup Days

Zone,
  Zone Office WholeBuilding - Lg Office  - Story Ground, !- Name
  -0,                                     !- Direction of Relative North {deg}
  -2.63964543073497,                      !- X Origin {m}
  -1.31982271536748,                      !- Y Origin {m}
  0,                                      !- Z Origin {m}
  ,                                       !- Type
  1,                                      !- Multiplier
  ,                                       !- Ceiling Height {m}
  ,                                       !- Volume {m3}
  ,                                       !- Floor Area {m2}
  ,                                       !- Zone Inside Convection Algorithm
  ,                                       !- Zone Outside Convection Algorithm
  Yes;                                    !- Part of Total Floor Area

Space,
  Office WholeBuilding - Lg Office  - Story Ground, !- Name
  Zone Office WholeBuilding - Lg Office  - Story Ground, !- Zone Name
  ,                                       !- Ceiling Height {m}
  ,                                       !- Volume {m3}
  ,                                       !- Floor Area {m2}
  Office WholeBuilding - Lg Office - ComStock DOE Ref Pre-1980; !- Space Type

SpaceList,
  Office WholeBuilding - Lg Office - ComStock DOE Ref Pre-1980, !- Name
  Office WholeBuilding - Lg Office  - Story Mid, !- Space Name 1
  Office WholeBuilding - Lg Office  - Story Mid3, !- Space Name 2
  Office WholeBuilding - Lg Office  - Story Mid4, !- Space Name 3
  Office WholeBuilding - Lg Office  - Story Mid5, !- Space Name 4
  Office WholeBuilding - Lg Office  - Story Mid16, !- Space Name 5
  Office WholeBuilding - Lg Office  - Story Ground, !- Space Name 6
  Office WholeBuilding - Lg Office  - Story Mid18, !- Space Name 7
  Office WholeBuilding - Lg Office  - Story Mid17, !- Space Name 8
  Office WholeBuilding - Lg Office  - Story Mid2, !- Space Name 9
  Office WholeBuilding - Lg Office  - Story Mid11, !- Space Name 10
  Office WholeBuilding - Lg Office  - Story Mid15, !- Space Name 11
  Office WholeBuilding - Lg Office  - Story Mid14, !- Space Name 12
  Office WholeBuilding - Lg Office  - Story Mid13, !- Space Name 13
  Office WholeBuilding - Lg Office  - Story Mid12, !- Space Name 14
  Office WholeBuilding - Lg Office  - Story Mid10, !- Space Name 15
  Office WholeBuilding - Lg Office  - Story Mid9, !- Space Name 16
  Office WholeBuilding - Lg Office  - Story Mid8, !- Space Name 17
  Office WholeBuilding - Lg Office  - Story Mid6, !- Space Name 18
  Office WholeBuilding - Lg Office  - Story Top, !- Space Name 19
  Office WholeBuilding - Lg Office  - Story Mid7; !- Space Name 20

Lights,
  Office WholeBuilding - Lg Office Lights, !- Name
  Office WholeBuilding - Lg Office - ComStock DOE Ref Pre-1980, !- Zone or ZoneList or Space or SpaceList Name
  Office BLDG_LIGHT_EndUseData,           !- Schedule Name
  Watts/Area,                             !- Design Level Calculation Method
  ,                                       !- Lighting Level {W}
  16.9531589063178,                       !- Watts per Zone Floor Area {W/m2}
  ,                                       !- Watts per Person {W/person}
  0,                                      !- Return Air Fraction
  0.655386,                               !- Fraction Radiant
  0.2,                                    !- Fraction Visible
  1,                                      !- Fraction Replaceable
  General;                                !- End-Use Subcategory

ScheduleTypeLimits,
  Fractional,                             !- Name
  0,                                      !- Lower Limit Value {BasedOnField A3}
  1,                                      !- Upper Limit Value {BasedOnField A3}
  Continuous;                             !- Numeric Type

Schedule:Day:Interval,
  Office BLDG_LIGHT_EndUseData Default,   !- Name
  Fractional,                             !- Schedule Type Limits Name
  Average,                                !- Interpolate to Timestep
  00:15,                                  !- Time 1 {hh:mm}
  0.039273,                               !- Value Until Time 1
  00:30,                                  !- Time 2 {hh:mm}
  0.228556,                               !- Value Until Time 2
  00:45,                                  !- Time 3 {hh:mm}
  0.249458,                               !- Value Until Time 3
  01:00,                                  !- Time 4 {hh:mm}
  0.27036,                                !- Value Until Time 4
  01:15,                                  !- Time 5 {hh:mm}
  0.291262,                               !- Value Until Time 5
  01:30,                                  !- Time 6 {hh:mm}
  0.312164,                               !- Value Until Time 6
  01:45,                                  !- Time 7 {hh:mm}
  0.333066,                               !- Value Until Time 7
  02:00,                                  !- Time 8 {hh:mm}
  0.353968,                               !- Value Until Time 8
  02:15,                                  !- Time 9 {hh:mm}
  0.37487,                                !- Value Until Time 9
  02:30,                                  !- Time 10 {hh:mm}
  0.395772,                               !- Value Until Time 10
  02:45,                                  !- Time 11 {hh:mm}
  0.416674,                               !- Value Until Time 11
  03:00,                                  !- Time 12 {hh:mm}
  0.437576,                               !- Value Until Time 12
  03:15,                                  !- Time 13 {hh:mm}
  0.458478,                               !- Value Until Time 13
  03:30,                                  !- Time 14 {hh:mm}
  0.47938,                                !- Value Until Time 14
  03:45,                                  !- Time 15 {hh:mm}
  0.500282,                               !- Value Until Time 15
  04:00,                                  !- Time 16 {hh:mm}
  0.521184,                               !- Value Until Time 16
  04:15,                                  !- Time 17 {hh:mm}
  0.542086,                               !- Value Until Time 17
  04:30,                                  !- Time 18 {hh:mm}
  0.59983275,                             !- Value Until Time 18
  04:45,                                  !- Time 19 {hh:mm}
  0.6575795,                              !- Value Until Time 19
  05:00,                                  !- Time 20 {hh:mm}
  0.71532625,                             !- Value Until Time 20
  05:15,                                  !- Time 21 {hh:mm}
  0.773073,                               !- Value Until Time 21
  05:30,                                  !- Time 22 {hh:mm}
  0.7906085,                              !- Value Until Time 22
  05:45,                                  !- Time 23 {hh:mm}
  0.808144,                               !- Value Until Time 23
  06:00,                                  !- Time 24 {hh:mm}
  0.8256795,                              !- Value Until Time 24
  06:15,                                  !- Time 25 {hh:mm}
  0.843215,                               !- Value Until Time 25
  06:30,                                  !- Time 26 {hh:mm}
  0.8437578,                              !- Value Until Time 26
  06:45,                                  !- Time 27 {hh:mm}
  0.8443006,                              !- Value Until Time 27
  07:00,                                  !- Time 28 {hh:mm}
  0.8448434,                              !- Value Until Time 28
  07:15,                                  !- Time 29 {hh:mm}
  0.8453862,                              !- Value Until Time 29
  07:30,                                  !- Time 30 {hh:mm}
  0.845929,                               !- Value Until Time 30
  07:45,                                  !- Time 31 {hh:mm}
  0.8464718,                              !- Value Until Time 31
  08:00,                                  !- Time 32 {hh:mm}
  0.8470146,                              !- Value Until Time 32
  08:15,                                  !- Time 33 {hh:mm}
  0.8475574,                              !- Value Until Time 33
  08:30,                                  !- Time 34 {hh:mm}
  0.8481002,                              !- Value Until Time 34
  08:45,                                  !- Time 35 {hh:mm}
  0.848643,                               !- Value Until Time 35
  09:00,                                  !- Time 36 {hh:mm}
  0.8491858,                              !- Value Until Time 36
  09:15,                                  !- Time 37 {hh:mm}
  0.8497286,                              !- Value Until Time 37
  09:22,                                  !- Time 38 {hh:mm}
  0.85,                                   !- Value Until Time 38
  09:37,                                  !- Time 39 {hh:mm}
  0.84198475,                             !- Value Until Time 39
  09:52,                                  !- Time 40 {hh:mm}
  0.8339695,                              !- Value Until Time 40
  10:07,                                  !- Time 41 {hh:mm}
  0.82595425,                             !- Value Until Time 41
  10:22,                                  !- Time 42 {hh:mm}
  0.817939,                               !- Value Until Time 42
  10:37,                                  !- Time 43 {hh:mm}
  0.805464,                               !- Value Until Time 43
  10:52,                                  !- Time 44 {hh:mm}
  0.792989,                               !- Value Until Time 44
  11:07,                                  !- Time 45 {hh:mm}
  0.780514,                               !- Value Until Time 45
  11:22,                                  !- Time 46 {hh:mm}
  0.768039,                               !- Value Until Time 46
  11:37,                                  !- Time 47 {hh:mm}
  0.77407625,                             !- Value Until Time 47
  11:52,                                  !- Time 48 {hh:mm}
  0.7801135,                              !- Value Until Time 48
  12:07,                                  !- Time 49 {hh:mm}
  0.78615075,                             !- Value Until Time 49
  12:22,                                  !- Time 50 {hh:mm}
  0.792188,                               !- Value Until Time 50
  12:37,                                  !- Time 51 {hh:mm}
  0.7854415,                              !- Value Until Time 51
  12:52,                                  !- Time 52 {hh:mm}
  0.778695,                               !- Value Until Time 52
  13:07,                                  !- Time 53 {hh:mm}
  0.7719485,                              !- Value Until Time 53
  13:22,                                  !- Time 54 {hh:mm}
  0.765202,                               !- Value Until Time 54
  13:37,                                  !- Time 55 {hh:mm}
  0.735588,                               !- Value Until Time 55
  13:52,                                  !- Time 56 {hh:mm}
  0.705974,                               !- Value Until Time 56
  14:07,                                  !- Time 57 {hh:mm}
  0.67636,                                !- Value Until Time 57
  14:22,                                  !- Time 58 {hh:mm}
  0.646746,                               !- Value Until Time 58
  14:37,                                  !- Time 59 {hh:mm}
  0.61899704,                             !- Value Until Time 59
  14:52,                                  !- Time 60 {hh:mm}
  0.59124808,                             !- Value Until Time 60
  15:07,                                  !- Time 61 {hh:mm}
  0.56349912,                             !- Value Until Time 61
  15:22,                                  !- Time 62 {hh:mm}
  0.53575016,                             !- Value Until Time 62
  15:37,                                  !- Time 63 {hh:mm}
  0.5080012,                              !- Value Until Time 63
  15:52,                                  !- Time 64 {hh:mm}
  0.48025224,                             !- Value Until Time 64
  16:07,                                  !- Time 65 {hh:mm}
  0.45250328,                             !- Value Until Time 65
  16:22,                                  !- Time 66 {hh:mm}
  0.42475432,                             !- Value Until Time 66
  16:37,                                  !- Time 67 {hh:mm}
  0.39700536,                             !- Value Until Time 67
  16:52,                                  !- Time 68 {hh:mm}
  0.3692564,                              !- Value Until Time 68
  17:07,                                  !- Time 69 {hh:mm}
  0.34150744,                             !- Value Until Time 69
  17:22,                                  !- Time 70 {hh:mm}
  0.31375848,                             !- Value Until Time 70
  17:30,                                  !- Time 71 {hh:mm}
  0.299884,                               !- Value Until Time 71
  17:45,                                  !- Time 72 {hh:mm}
  0.25875775,                             !- Value Until Time 72
  18:00,                                  !- Time 73 {hh:mm}
  0.2176315,                              !- Value Until Time 73
  18:15,                                  !- Time 74 {hh:mm}
  0.17650525,                             !- Value Until Time 74
  18:30,                                  !- Time 75 {hh:mm}
  0.135379,                               !- Value Until Time 75
  18:45,                                  !- Time 76 {hh:mm}
  0.12439175,                             !- Value Until Time 76
  19:00,                                  !- Time 77 {hh:mm}
  0.1134045,                              !- Value Until Time 77
  19:15,                                  !- Time 78 {hh:mm}
  0.10241725,                             !- Value Until Time 78
  19:30,                                  !- Time 79 {hh:mm}
  0.09143,                                !- Value Until Time 79
  19:45,                                  !- Time 80 {hh:mm}
  0.090147,                               !- Value Until Time 80
  20:00,                                  !- Time 81 {hh:mm}
  0.088864,                               !- Value Until Time 81
  20:15,                                  !- Time 82 {hh:mm}
  0.087581,                               !- Value Until Time 82
  20:30,                                  !- Time 83 {hh:mm}
  0.086298,                               !- Value Until Time 83
  20:45,                                  !- Time 84 {hh:mm}
  0.08656275,                             !- Value Until Time 84
  21:00,                                  !- Time 85 {hh:mm}
  0.0868275,                              !- Value Until Time 85
  21:15,                                  !- Time 86 {hh:mm}
  0.08709225,                             !- Value Until Time 86
  21:30,                                  !- Time 87 {hh:mm}
  0.087357,                               !- Value Until Time 87
  21:45,                                  !- Time 88 {hh:mm}
  0.08721725,                             !- Value Until Time 88
  22:00,                                  !- Time 89 {hh:mm}
  0.0870775,                              !- Value Until Time 89
  22:15,                                  !- Time 90 {hh:mm}
  0.08693775,                             !- Value Until Time 90
  22:30,                                  !- Time 91 {hh:mm}
  0.086798,                               !- Value Until Time 91
  22:45,                                  !- Time 92 {hh:mm}
  0.07858575,                             !- Value Until Time 92
  23:00,                                  !- Time 93 {hh:mm}
  0.0703735,                              !- Value Until Time 93
  23:15,                                  !- Time 94 {hh:mm}
  0.06216125,                             !- Value Until Time 94
  23:30,                                  !- Time 95 {hh:mm}
  0.053949,                               !- Value Until Time 95
  23:45,                                  !- Time 96 {hh:mm}
  0.05279525,                             !- Value Until Time 96
  24:00,                                  !- Time 97 {hh:mm}
  0.0516415;                              !- Value Until Time 97

Schedule:Day:Interval,
  Office BLDG_LIGHT_EndUseData Sat Day,   !- Name
  Fractional,                             !- Schedule Type Limits Name
  Average,                                !- Interpolate to Timestep
  00:15,                                  !- Time 1 {hh:mm}
  0.051284421,                            !- Value Until Time 1
  00:30,                                  !- Time 2 {hh:mm}
  0.048878367,                            !- Value Until Time 2
  00:45,                                  !- Time 3 {hh:mm}
  0.046472313,                            !- Value Until Time 3
  01:00,                                  !- Time 4 {hh:mm}
  0.044066259,                            !- Value Until Time 4
  01:15,                                  !- Time 5 {hh:mm}
  0.04415961975,                          !- Value Until Time 5
  01:30,                                  !- Time 6 {hh:mm}
  0.0442529805,                           !- Value Until Time 6
  01:45,                                  !- Time 7 {hh:mm}
  0.04434634125,                          !- Value Until Time 7
  02:00,                                  !- Time 8 {hh:mm}
  0.044439702,                            !- Value Until Time 8
  02:15,                                  !- Time 9 {hh:mm}