
OS:Version,
  {ae5d2906-ea6f-4e03-b677-71bb061c0380}, !- Handle
  3.6.1;                                  !- Version Identifier

OS:Facility,
  {54020aab-77f0-4daa-bfe0-e6ee9dd8e2e0}; !- Handle

OS:Site,
  {4bc959a2-c846-464b-aa1c-91d1242974bf}, !- Handle
  MERCED-MUNI-MACREADY,                   !- Name
  37.28,                                  !- Latitude {deg}
  -120.51,                                !- Longitude {deg}
  -8,                                     !- Time Zone {hr}
  48,                                     !- Elevation {m}
  City;                                   !- Terrain

OS:SimulationControl,
  {e585f256-de7d-4073-8843-cae29c6b9716}, !- Handle
  ,                                       !- Do Zone Sizing Calculation
  ,                                       !- Do System Sizing Calculation
  ,                                       !- Do Plant Sizing Calculation
  No,                                     !- Run Simulation for Sizing Periods
  Yes,                                    !- Run Simulation for Weather File Run Periods
  ,                                       !- Loads Convergence Tolerance Value {W}
  ,                                       !- Temperature Convergence Tolerance Value {deltaC}
  ,                                       !- Solar Distribution
  ,                                       !- Maximum Number of Warmup Days
  ,                                       !- Minimum Number of Warmup Days
  No,                                     !- Do HVAC Sizing Simulation for Sizing Periods
  1;                                      !- Maximum Number of HVAC Sizing Simulation Passes

OS:Sizing:Parameters,
  {734d889b-56e1-499e-8a67-0fa6f7326553}, !- Handle
  1.25,                                   !- Heating Sizing Factor
  1.15;                                   !- Cooling Sizing Factor

OS:Timestep,
  {aaebbc76-bc98-4652-96a5-77b969da2cca}, !- Handle
  4;                                      !- Number of Timesteps per Hour

OS:ShadowCalculation,
  {1399a9b9-86c1-409f-b0eb-608f83873634}, !- Handle
  PolygonClipping,                        !- Shading Calculation Method
  ,                                       !- Shading Calculation Update Frequency Method
  20,                                     !- Shading Calculation Update Frequency
  15000,                                  !- Maximum Figures in Shadow Overlap Calculations
  ,                                       !- Polygon Clipping Algorithm
  512,                                    !- Pixel Counting Resolution
  ,                                       !- Sky Diffuse Modeling Algorithm
  No,                                     !- Output External Shading Calculation Results
  No,                                     !- Disable Self-Shading Within Shading Zone Groups
  No;                                     !- Disable Self-Shading From Shading Zone Groups to Other Zones

OS:HeatBalanceAlgorithm,
  {0921b775-aad3-4fb8-b519-14532a4f6bdf}, !- Handle
  ConductionTransferFunction,             !- Algorithm
  200;                                    !- Surface Temperature Upper Limit {C}

OS:RunPeriod,
  {58741e64-c980-4b71-b76a-ef881a43c808}, !- Handle
  Run Period 1,                           !- Name
  1,                                      !- Begin Month
  1,                                      !- Begin Day of Month
  12,                                     !- End Month
  31,                                     !- End Day of Month
  ,                                       !- Use Weather File Holidays and Special Days
  ,                                       !- Use Weather File Daylight Saving Period
  ,                                       !- Apply Weekend Holiday Rule
  ,                                       !- Use Weather File Rain Indicators
  ,                                       !- Use Weather File Snow Indicators
  ;                                       !- Number of Times Runperiod to be Repeated

OS:LifeCycleCost:Parameters,
  {d626d460-baf5-44e8-8f6f-df62c10203a1}, !- Handle
  ,                                       !- Analysis Type
  ,                                       !- Discounting Convention
  ,                                       !- Inflation Approach
  ,                                       !- Real Discount Rate
  ,                                       !- Nominal Discount Rate
  ,                                       !- Inflation
  ,                                       !- Base Date Month
  ,                                       !- Base Date Year
  ,                                       !- Service Date Month
  ,                                       !- Service Date Year
  ;                                       !- Length of Study Period in Years

OS:Site:WaterMainsTemperature,
  {cf570cbb-1edc-4b29-9ba7-2013eecd7f47}, !- Handle
  Correlation,                            !- Calculation Method
  ,                                       !- Temperature Schedule Name
  17.5508333333333,                       !- Annual Average Outdoor Air Temperature {C}
  19.95;                                  !- Maximum Difference In Monthly Average Outdoor Air Temperatures {deltaC}

OS:SizingPeriod:DesignDay,
  {6a7bc6ad-d132-4649-ae17-04f2c3801762}, !- Handle
  Castle Afb Merced Ann Clg .4% Condns DB=>MWB 1, !- Name
  37.5,                                   !- Maximum Dry-Bulb Temperature {C}
  16.8,                                   !- Daily Dry-Bulb Temperature Range {deltaC}
  100606,                                 !- Barometric Pressure {Pa}
  3.5,                                    !- Wind Speed {m/s}
  320,                                    !- Wind Direction {deg}
  ,                                       !- Sky Clearness
  No,                                     !- Rain Indicator
  No,                                     !- Snow Indicator
  21,                                     !- Day of Month
  7,                                      !- Month
  SummerDesignDay,                        !- Day Type
  No,                                     !- Daylight Saving Time Indicator
  Wetbulb,                                !- Humidity Condition Type
  ,                                       !- Humidity Condition Day Schedule Name
  21.1,                                   !- Wetbulb or DewPoint at Maximum Dry-Bulb {C}
  ,                                       !- Humidity Ratio at Maximum Dry-Bulb {kgWater/kgDryAir}
  ,                                       !- Enthalpy at Maximum Dry-Bulb {J/kg}
  DefaultMultipliers,                     !- Dry-Bulb Temperature Range Modifier Type
  ,                                       !- Dry-Bulb Temperature Range Modifier Day Schedule Name
  ASHRAETau,                              !- Solar Model Indicator
  ,                                       !- Beam Solar Day Schedule Name
  ,                                       !- Diffuse Solar Day Schedule Name
  0.345,                                  !- ASHRAE Clear Sky Optical Depth for Beam Irradiance {dimensionless}
  2.395;                                  !- ASHRAE Clear Sky Optical Depth for Diffuse Irradiance {dimensionless}

OS:SizingPeriod:DesignDay,
  {579c6f21-ba5b-4406-b5fd-72df7f54b97c}, !- Handle
  Castle Afb Merced Ann Clg .4% Condns WB=>MDB 1, !- Name
  34.9,                                   !- Maximum Dry-Bulb Temperature {C}
  16.8,                                   !- Daily Dry-Bulb Temperature Range {deltaC}
  100606,                                 !- Barometric Pressure {Pa}
  3.5,                                    !- Wind Speed {m/s}
  320,                                    !- Wind Direction {deg}
  ,                                       !- Sky Clearness
  No,                                     !- Rain Indicator
  No,                                     !- Snow Indicator
  21,                                     !- Day of Month
  7,                                      !- Month
  SummerDesignDay,                        !- Day Type
  No,                                     !- Daylight Saving Time Indicator
  Wetbulb,                                !- Humidity Condition Type
  ,                                       !- Humidity Condition Day Schedule Name
  22.4,                                   !- Wetbulb or DewPoint at Maximum Dry-Bulb {C}
  ,                                       !- Humidity Ratio at Maximum Dry-Bulb {kgWater/kgDryAir}
  ,                                       !- Enthalpy at Maximum Dry-Bulb {J/kg}
  DefaultMultipliers,                     !- Dry-Bulb Temperature Range Modifier Type
  ,                                       !- Dry-Bulb Temperature Range Modifier Day Schedule Name
  ASHRAETau,                              !- Solar Model Indicator
  ,                                       !- Beam Solar Day Schedule Name
  ,                                       !- Diffuse Solar Day Schedule Name
  0.345,                                  !- ASHRAE Clear Sky Optical Depth for Beam Irradiance {dimensionless}
  2.395;                                  !- ASHRAE Clear Sky Optical Depth for Diffuse Irradiance {dimensionless}

OS:SizingPeriod:DesignDay,
  {a7944375-3af2-4f67-8d2d-8c0b918a6400}, !- Handle
  Castle Afb Merced Ann Clg 1% Condns DB=>MWB 1, !- Name
  36.1,                                   !- Maximum Dry-Bulb Temperature {C}
  16.8,                                   !- Daily Dry-Bulb Temperature Range {deltaC}
  100606,                                 !- Barometric Pressure {Pa}
  3.5,                                    !- Wind Speed {m/s}
  320,                                    !- Wind Direction {deg}
  ,                                       !- Sky Clearness
  No,                                     !- Rain Indicator
  No,                                     !- Snow Indicator
  21,                                     !- Day of Month
  7,                                      !- Month
  SummerDesignDay,                        !- Day Type
  No,                                     !- Daylight Saving Time Indicator
  Wetbulb,                                !- Humidity Condition Type
  ,                                       !- Humidity Condition Day Schedule Name
  20.7,                                   !- Wetbulb or DewPoint at Maximum Dry-Bulb {C}
  ,                                       !- Humidity Ratio at Maximum Dry-Bulb {kgWater/kgDryAir}
  ,                                       !- Enthalpy at Maximum Dry-Bulb {J/kg}
  DefaultMultipliers,                     !- Dry-Bulb Temperature Range Modifier Type
  ,                                       !- Dry-Bulb Temperature Range Modifier Day Schedule Name
  ASHRAETau,                              !- Solar Model Indicator
  ,                                       !- Beam Solar Day Schedule Name
  ,                                       !- Diffuse Solar Day Schedule Name
  0.345,                                  !- ASHRAE Clear Sky Optical Depth for Beam Irradiance {dimensionless}
  2.395;                                  !- ASHRAE Clear Sky Optical Depth for Diffuse Irradiance {dimensionless}

OS:SizingPeriod:DesignDay,
  {51ed0d75-1830-458a-935c-71c272c8e3ef}, !- Handle
  Castle Afb Merced Ann Clg 2% Condns DP=>MDB 1, !- Name
  27.6,                                   !- Maximum Dry-Bulb Temperature {C}
  16.8,                                   !- Daily Dry-Bulb Temperature Range {deltaC}
  100606,                                 !- Barometric Pressure {Pa}
  3.5,                                    !- Wind Speed {m/s}
  320,                                    !- Wind Direction {deg}
  ,                                       !- Sky Clearness
  No,                                     !- Rain Indicator
  No,                                     !- Snow Indicator
  21,                                     !- Day of Month
  7,                                      !- Month
  SummerDesignDay,                        !- Day Type
  No,                                     !- Daylight Saving Time Indicator
  Dewpoint,                               !- Humidity Condition Type
  ,                                       !- Humidity Condition Day Schedule Name
  15.7,                                   !- Wetbulb or DewPoint at Maximum Dry-Bulb {C}
  ,                                       !- Humidity Ratio at Maximum Dry-Bulb {kgWater/kgDryAir}
  ,                                       !- Enthalpy at Maximum Dry-Bulb {J/kg}
  DefaultMultipliers,                     !- Dry-Bulb Temperature Range Modifier Type
  ,                                       !- Dry-Bulb Temperature Range Modifier Day Schedule Name
  ASHRAETau,                              !- Solar Model Indicator
  ,                                       !- Beam Solar Day Schedule Name
  ,                                       !- Diffuse Solar Day Schedule Name
  0.345,                                  !- ASHRAE Clear Sky Optical Depth for Beam Irradiance {dimensionless}
  2.395;                                  !- ASHRAE Clear Sky Optical Depth for Diffuse Irradiance {dimensionless}

OS:SizingPeriod:DesignDay,
  {c82431ee-9915-4e3a-87cb-2bd5bc50038e}, !- Handle
  Castle Afb Merced Ann Htg 99% Condns DB 1, !- Name
  0.3,                                    !- Maximum Dry-Bulb Temperature {C}
  0,                                      !- Daily Dry-Bulb Temperature Range {deltaC}
  100606,                                 !- Barometric Pressure {Pa}
  0.7,                                    !- Wind Speed {m/s}
  110,                                    !- Wind Direction {deg}
  0,                                      !- Sky Clearness
  No,                                     !- Rain Indicator
  No,                                     !- Snow Indicator
  21,                                     !- Day of Month
  1,                                      !- Month
  WinterDesignDay,                        !- Day Type
  No,                                     !- Daylight Saving Time Indicator
  Wetbulb,                                !- Humidity Condition Type
  ,                                       !- Humidity Condition Day Schedule Name
  0.3,                                    !- Wetbulb or DewPoint at Maximum Dry-Bulb {C}
  ,                                       !- Humidity Ratio at Maximum Dry-Bulb {kgWater/kgDryAir}
  ,                                       !- Enthalpy at Maximum Dry-Bulb {J/kg}
  DefaultMultipliers,                     !- Dry-Bulb Temperature Range Modifier Type
  ,                                       !- Dry-Bulb Temperature Range Modifier Day Schedule Name
  ASHRAEClearSky;                         !- Solar Model Indicator

OS:SizingPeriod:DesignDay,
  {185ece6f-8d1b-4d65-9d2a-4bf7716d43a1}, !- Handle
  Castle Afb Merced Ann Htg 99.6% Condns DB 1, !- Name
  -0.8,                                   !- Maximum Dry-Bulb Temperature {C}
  0,                                      !- Daily Dry-Bulb Temperature Range {deltaC}
  100606,                                 !- Barometric Pressure {Pa}
  0.7,                                    !- Wind Speed {m/s}
  110,                                    !- Wind Direction {deg}
  0,                                      !- Sky Clearness
  No,                                     !- Rain Indicator
  No,                                     !- Snow Indicator
  21,                                     !- Day of Month
  1,                                      !- Month
  WinterDesignDay,                        !- Day Type
  No,                                     !- Daylight Saving Time Indicator
  Wetbulb,                                !- Humidity Condition Type
  ,                                       !- Humidity Condition Day Schedule Name
  -0.8,                                   !- Wetbulb or DewPoint at Maximum Dry-Bulb {C}
  ,                                       !- Humidity Ratio at Maximum Dry-Bulb {kgWater/kgDryAir}
  ,                                       !- Enthalpy at Maximum Dry-Bulb {J/kg}
  DefaultMultipliers,                     !- Dry-Bulb Temperature Range Modifier Type
  ,                                       !- Dry-Bulb Temperature Range Modifier Day Schedule Name
  ASHRAEClearSky;                         !- Solar Model Indicator

OS:SizingPeriod:DesignDay,
  {f2f6b58e-c32a-45e7-8e99-4a4cc0699c08}, !- Handle
  Castle Afb Merced Ann Htg Wind 99% Condns WS=>MCDB 1, !- Name
  10.6,                                   !- Maximum Dry-Bulb Temperature {C}
  0,                                      !- Daily Dry-Bulb Temperature Range {deltaC}
  100606,                                 !- Barometric Pressure {Pa}
  9.2,                                    !- Wind Speed {m/s}
  110,                                    !- Wind Direction {deg}
  0,                                      !- Sky Clearness
  No,                                     !- Rain Indicator
  No,                                     !- Snow Indicator
  21,                                     !- Day of Month
  1,                                      !- Month
  WinterDesignDay,                        !- Day Type
  No,                                     !- Daylight Saving Time Indicator
  Wetbulb,                                !- Humidity Condition Type
  ,                                       !- Humidity Condition Day Schedule Name
  10.6,                                   !- Wetbulb or DewPoint at Maximum Dry-Bulb {C}
  ,                                       !- Humidity Ratio at Maximum Dry-Bulb {kgWater/kgDryAir}
  ,                                       !- Enthalpy at Maximum Dry-Bulb {J/kg}
  DefaultMultipliers,                     !- Dry-Bulb Temperature Range Modifier Type
  ,                                       !- Dry-Bulb Temperature Range Modifier Day Schedule Name
  ASHRAEClearSky;                         !- Solar Model Indicator

OS:SizingPeriod:DesignDay,
  {893ef850-55ef-4393-a6c5-52aa051f951c}, !- Handle
  Castle Afb Merced April .4% Condns DB=>MCWB 1, !- Name
  31.7,                                   !- Maximum Dry-Bulb Temperature {C}
  13.9,                                   !- Daily Dry-Bulb Temperature Range {deltaC}
  100606,                                 !- Barometric Pressure {Pa}
  3.5,                                    !- Wind Speed {m/s}
  320,                                    !- Wind Direction {deg}
  ,                                       !- Sky Clearness
  No,                                     !- Rain Indicator
  No,                                     !- Snow Indicator
  21,                                     !- Day of Month
  4,                                      !- Month
  SummerDesignDay,                        !- Day Type
  No,                                     !- Daylight Saving Time Indicator
  Wetbulb,                                !- Humidity Condition Type
  ,                                       !- Humidity Condition Day Schedule Name
  17.8,                                   !- Wetbulb or DewPoint at Maximum Dry-Bulb {C}
  ,                                       !- Humidity Ratio at Maximum Dry-Bulb {kgWater/kgDryAir}
  ,                                       !- Enthalpy at Maximum Dry-Bulb {J/kg}
  DefaultMultipliers,                     !- Dry-Bulb Temperature Range Modifier Type
  ,                                       !- Dry-Bulb Temperature Range Modifier Day Schedule Name
  ASHRAETau,                              !- Solar Model Indicator
  ,                                       !- Beam Solar Day Schedule Name
  ,                                       !- Diffuse Solar Day Schedule Name
  0.338,                                  !- ASHRAE Clear Sky Optical Depth for Beam Irradiance {dimensionless}
  2.431;                                  !- ASHRAE Clear Sky Optical Depth for Diffuse Irradiance {dimensionless}

OS:SizingPeriod:DesignDay,
  {bc77aabb-67f2-4791-8be4-680992ad0225}, !- Handle
  Castle Afb Merced April .4% Condns WB=>MCDB 1, !- Name
  29.5,                                   !- Maximum Dry-Bulb Temperature {C}
  13.9,                                   !- Daily Dry-Bulb Temperature Range {deltaC}
  100606,                                 !- Barometric Pressure {Pa}
  3.5,                                    !- Wind Speed {m/s}
  320,                                    !- Wind Direction {deg}
  ,                                       !- Sky Clearness
  No,                                     !- Rain Indicator
  No,                                     !- Snow Indicator
  21,                                     !- Day of Month
  4,                                      !- Month
  SummerDesignDay,                        !- Day Type
  No,                                     !- Daylight Saving Time Indicator
  Wetbulb,                                !- Humidity Condition Type
  ,                                       !- Humidity Condition Day Schedule Name
  19.8,                                   !- Wetbulb or DewPoint at Maximum Dry-Bulb {C}
  ,                                       !- Humidity Ratio at Maximum Dry-Bulb {kgWater/kgDryAir}
  ,                                       !- Enthalpy at Maximum Dry-Bulb {J/kg}
  DefaultMultipliers,                     !- Dry-Bulb Temperature Range Modifier Type
  ,                                       !- Dry-Bulb Temperature Range Modifier Day Schedule Name
  ASHRAETau,                              !- Solar Model Indicator
  ,                                       !- Beam Solar Day Schedule Name
  ,                                       !- Diffuse Solar Day Schedule Name
  0.338,                                  !- ASHRAE Clear Sky Optical Depth for Beam Irradiance {dimensionless}
  2.431;                                  !- ASHRAE Clear Sky Optical Depth for Diffuse Irradiance {dimensionless}

OS:SizingPeriod:DesignDay,
  {b5fe3f2a-eea3-475c-bb33-dd28b8f6d83b}, !- Handle
  Castle Afb Merced August .4% Condns DB=>MCWB 1, !- Name
  39.4,                                   !- Maximum Dry-Bulb Temperature {C}
  16.4,                                   !- Daily Dry-Bulb Temperature Range {deltaC}
  100606,                                 !- Barometric Pressure {Pa}
  3.5,                                    !- Wind Speed {m/s}
  320,                                    !- Wind Direction {deg}
  ,                                       !- Sky Clearness
  No,                                     !- Rain Indicator
  No,                                     !- Snow Indicator
  21,                                     !- Day of Month
  8,                                      !- Month
  SummerDesignDay,                        !- Day Type
  No,                                     !- Daylight Saving Time Indicator
  Wetbulb,                                !- Humidity Condition Type
  ,                                       !- Humidity Condition Day Schedule Name
  21.4,                                   !- Wetbulb or DewPoint at Maximum Dry-Bulb {C}
  ,                                       !- Humidity Ratio at Maximum Dry-Bulb {kgWater/kgDryAir}
  ,                                       !- Enthalpy at Maximum Dry-Bulb {J/kg}
  DefaultMultipliers,                     !- Dry-Bulb Temperature Range Modifier Type
  ,                                       !- Dry-Bulb Temperature Range Modifier Day Schedule Name
  ASHRAETau,                              !- Solar Model Indicator
  ,                                       !- Beam Solar Day Schedule Name
  ,                                       !- Diffuse Solar Day Schedule Name
  0.367,                                  !- ASHRAE Clear Sky Optical Depth for Beam Irradiance {dimensionless}
  2.383;                                  !- ASHRAE Clear Sky Optical Depth for Diffuse Irradiance {dimensionless}

OS:SizingPeriod:DesignDay,
  {4ee9da71-6f82-41f2-a223-bcd38d9c2b15}, !- Handle
  Castle Afb Merced August .4% Condns WB=>MCDB 1, !- Name
  36.2,                                   !- Maximum Dry-Bulb Temperature {C}
  16.4,                                   !- Daily Dry-Bulb Temperature Range {deltaC}
  100606,                                 !- Barometric Pressure {Pa}
  3.5,                                    !- Wind Speed {m/s}
  320,                                    !- Wind Direction {deg}
  ,                                       !- Sky Clearness
  No,                                     !- Rain Indicator
  No,                                     !- Snow Indicator
  21,                                     !- Day of Month
  8,                                      !- Month
  SummerDesignDay,                        !- Day Type
  No,                                     !- Daylight Saving Time Indicator
  Wetbulb,                                !- Humidity Condition Type
  ,                                       !- Humidity Condition Day Schedule Name
  22.8,                                   !- Wetbulb or DewPoint at Maximum Dry-Bulb {C}
  ,                                       !- Humidity Ratio at Maximum Dry-Bulb {kgWater/kgDryAir}
  ,                                       !- Enthalpy at Maximum Dry-Bulb {J/kg}
  DefaultMultipliers,                     !- Dry-Bulb Temperature Range Modifier Type
  ,                                       !- Dry-Bulb Temperature Range Modifier Day Schedule Name
  ASHRAETau,                              !- Solar Model Indicator
  ,                                       !- Beam Solar Day Schedule Name
  ,                                       !- Diffuse Solar Day Schedule Name
  0.367,                                  !- ASHRAE Clear Sky Optical Depth for Beam Irradiance {dimensionless}
  2.383;                                  !- ASHRAE Clear Sky Optical Depth for Diffuse Irradiance {dimensionless}

OS:SizingPeriod:DesignDay,
  {eb273ecb-7a73-4272-900a-ea0e4c60c766}, !- Handle
  Castle Afb Merced December .4% Condns DB=>MCWB 1, !- Name
  18.2,                                   !- Maximum Dry-Bulb Temperature {C}
  8,                                      !- Daily Dry-Bulb Temperature Range {deltaC}
  100606,                                 !- Barometric Pressure {Pa}
  3.5,                                    !- Wind Speed {m/s}
  320,                                    !- Wind Direction {deg}
  ,                                       !- Sky Clearness
  No,                                     !- Rain Indicator
  No,                                     !- Snow Indicator
  21,                                     !- Day of Month
  12,                                     !- Month
  SummerDesignDay,                        !- Day Type
  No,                                     !- Daylight Saving Time Indicator
  Wetbulb,                                !- Humidity Condition Type
  ,                                       !- Humidity Condition Day Schedule Name
  11.9,                                   !- Wetbulb or DewPoint at Maximum Dry-Bulb {C}
  ,                                       !- Humidity Ratio at Maximum Dry-Bulb {kgWater/kgDryAir}
  ,                                       !- Enthalpy at Maximum Dry-Bulb {J/kg}
  DefaultMultipliers,                     !- Dry-Bulb Temperature Range Modifier Type
  ,                                       !- Dry-Bulb Temperature Range Modifier Day Schedule Name
  ASHRAETau,                              !- Solar Model Indicator
  ,                                       !- Beam Solar Day Schedule Name
  ,                                       !- Diffuse Solar Day Schedule Name
  0.327,                                  !- ASHRAE Clear Sky Optical Depth for Beam Irradiance {dimensionless}
  2.584;                                  !- ASHRAE Clear Sky Optical Depth for Diffuse Irradiance {dimensionless}

OS:SizingPeriod:DesignDay,
  {b28c1463-92d0-496c-a183-f43e050273c5}, !- Handle
  Castle Afb Merced December .4% Condns WB=>MCDB 1, !- Name
  16.6,                                   !- Maximum Dry-Bulb Temperature {C}
  8,                                      !- Daily Dry-Bulb Temperature Range {deltaC}
  100606,                                 !- Barometric Pressure {Pa}
  3.5,                                    !- Wind Speed {m/s}
  320,                                    !- Wind Direction {deg}
  ,                                       !- Sky Clearness
  No,                                     !- Rain Indicator
  No,                                     !- Snow Indicator
  21,                                     !- Day of Month
  12,                                     !- Month
  SummerDesignDay,                        !- Day Type
  No,                                     !- Daylight Saving Time Indicator
  Wetbulb,                                !- Humidity Condition Type
  ,                                       !- Humidity Condition Day Schedule Name
  13.3,                                   !- Wetbulb or DewPoint at Maximum Dry-Bulb {C}
  ,                                       !- Humidity Ratio at Maximum Dry-Bulb {kgWater/kgDryAir}
  ,                                       !- Enthalpy at Maximum Dry-Bulb {J/kg}
  DefaultMultipliers,                     !- Dry-Bulb Temperature Range Modifier Type
  ,                                       !- Dry-Bulb Temperature Range Modifier Day Schedule Name
  ASHRAETau,                              !- Solar Model Indicator
  ,                                       !- Beam Solar Day Schedule Name
  ,                                       !- Diffuse Solar Day Schedule Name
  0.327,                                  !- ASHRAE Clear Sky Optical Depth for Beam Irradiance {dimensionless}
  2.584;                                  !- ASHRAE Clear Sky Optical Depth for Diffuse Irradiance {dimensionless}

OS:SizingPeriod:DesignDay,
  {411b0d6d-c53a-4b25-b08f-8489597a62cd}, !- Handle
  Castle Afb Merced February .4% Condns DB=>MCWB 1, !- Name
  23,                                     !- Maximum Dry-Bulb Temperature {C}
  10.7,                                   !- Daily Dry-Bulb Temperature Range {deltaC}