
OS:Version,
  {0c51edcf-bc95-4db0-9e96-7fd09a7b494c}, !- Handle
  3.4.0;                                  !- Version Identifier

OS:Facility,
  {6fe624c2-5bfe-4cd6-8455-fcfe3c355829}; !- Handle

OS:Site,
  {5e118ce6-76db-4352-b46f-4e14bfce6283}, !- Handle
  Houghton County_MI_USA,                 !- Name
  47.17,                                  !- Latitude {deg}
  -88.51,                                 !- Longitude {deg}
  -5,                                     !- Time Zone {hr}
  329,                                    !- Elevation {m}
  City;                                   !- Terrain

OS:SimulationControl,
  {d516a5d6-01d3-44b0-b824-c91ea9aa19ab}, !- Handle
  ,                                       !- Do Zone Sizing Calculation
  ,                                       !- Do System Sizing Calculation
  ,                                       !- Do Plant Sizing Calculation
  No,                                     !- Run Simulation for Sizing Periods
  Yes,                                    !- Run Simulation for Weather File Run Periods
  ,                                       !- Loads Convergence Tolerance Value {W}
  ,                                       !- Temperature Convergence Tolerance Value {deltaC}
  ,                                       !- Solar Distribution
  ,                                       !- Maximum Number of Warmup Days
  ,                                       !- Minimum Number of Warmup Days
  No,                                     !- Do HVAC Sizing Simulation for Sizing Periods
  1;                                      !- Maximum Number of HVAC Sizing Simulation Passes

OS:Sizing:Parameters,
  {e07ae9b8-546c-412e-8577-258b27dbc904}, !- Handle
  1.25,                                   !- Heating Sizing Factor
  1.15;                                   !- Cooling Sizing Factor

OS:Timestep,
  {11b11913-b719-4484-915b-fc2df668b1cf}, !- Handle
  4;                                      !- Number of Timesteps per Hour

OS:ShadowCalculation,
  {4678cc2c-8e18-4c17-99ca-182c9b36f37d}, !- Handle
  PolygonClipping,                        !- Shading Calculation Method
  ,                                       !- Shading Calculation Update Frequency Method
  20,                                     !- Shading Calculation Update Frequency
  15000,                                  !- Maximum Figures in Shadow Overlap Calculations
  ,                                       !- Polygon Clipping Algorithm
  512,                                    !- Pixel Counting Resolution
  ,                                       !- Sky Diffuse Modeling Algorithm
  No,                                     !- Output External Shading Calculation Results
  No,                                     !- Disable Self-Shading Within Shading Zone Groups
  No;                                     !- Disable Self-Shading From Shading Zone Groups to Other Zones

OS:HeatBalanceAlgorithm,
  {54c90e0b-079c-4b10-8f58-c8009059b3e6}, !- Handle
  ConductionTransferFunction,             !- Algorithm
  200;                                    !- Surface Temperature Upper Limit {C}

OS:RunPeriod,
  {c7966bbd-fe1e-4081-85ed-5c19370e290e}, !- Handle
  Run Period 1,                           !- Name
  1,                                      !- Begin Month
  1,                                      !- Begin Day of Month
  12,                                     !- End Month
  31,                                     !- End Day of Month
  ,                                       !- Use Weather File Holidays and Special Days
  ,                                       !- Use Weather File Daylight Saving Period
  ,                                       !- Apply Weekend Holiday Rule
  ,                                       !- Use Weather File Rain Indicators
  ,                                       !- Use Weather File Snow Indicators
  ;                                       !- Number of Times Runperiod to be Repeated

OS:LifeCycleCost:Parameters,
  {34830af4-6b0d-4a6a-bba8-7a41c3b21597}, !- Handle
  ,                                       !- Analysis Type
  ,                                       !- Discounting Convention
  ,                                       !- Inflation Approach
  ,                                       !- Real Discount Rate
  ,                                       !- Nominal Discount Rate
  ,                                       !- Inflation
  ,                                       !- Base Date Month
  ,                                       !- Base Date Year
  ,                                       !- Service Date Month
  ,                                       !- Service Date Year
  ;                                       !- Length of Study Period in Years

OS:WeatherFile,
  {d8148f90-d0b2-42ce-821a-198f72b98222}, !- Handle
  Denver Intl Ap,                         !- City
  CO,                                     !- State Province Region
  USA,                                    !- Country
  TMY3,                                   !- Data Source
  725650,                                 !- WMO Number
  39.83,                                  !- Latitude {deg}
  -104.65,                                !- Longitude {deg}
  -7,                                     !- Time Zone {hr}
  1650,                                   !- Elevation {m}
  /Users/kwoldeki/Documents/MyProjects/EUSS_test/weather/USA_CO_Denver.Intl.AP.725650_TMY3.epw, !- Url
  E23378AA,                               !- Checksum
  ,                                       !- Start Date Actual Year
  Sunday;                                 !- Start Day of Week

OS:Site:WaterMainsTemperature,
  {13a63b4c-d653-4eaf-b496-cb84ce15acca}, !- Handle
  Correlation,                            !- Calculation Method
  ,                                       !- Temperature Schedule Name
  5.01416666666667,                       !- Annual Average Outdoor Air Temperature {C}
  29.08;                                  !- Maximum Difference In Monthly Average Outdoor Air Temperatures {deltaC}

OS:SizingPeriod:DesignDay,
  {e368a598-2e28-4247-a87d-69e8541f66a0}, !- Handle
  Houghton County Ann Clg .4% Condns DB=>MWB 1, !- Name
  29.2,                                   !- Maximum Dry-Bulb Temperature {C}
  10.4,                                   !- Daily Dry-Bulb Temperature Range {deltaC}
  97435,                                  !- Barometric Pressure {Pa}
  4.7,                                    !- Wind Speed {m/s}
  270,                                    !- Wind Direction {deg}
  ,                                       !- Sky Clearness
  No,                                     !- Rain Indicator
  No,                                     !- Snow Indicator
  21,                                     !- Day of Month
  7,                                      !- Month
  SummerDesignDay,                        !- Day Type
  No,                                     !- Daylight Saving Time Indicator
  Wetbulb,                                !- Humidity Condition Type
  ,                                       !- Humidity Condition Day Schedule Name
  21.2,                                   !- Wetbulb or DewPoint at Maximum Dry-Bulb {C}
  ,                                       !- Humidity Ratio at Maximum Dry-Bulb {kgWater/kgDryAir}
  ,                                       !- Enthalpy at Maximum Dry-Bulb {J/kg}
  DefaultMultipliers,                     !- Dry-Bulb Temperature Range Modifier Type
  ,                                       !- Dry-Bulb Temperature Range Modifier Day Schedule Name
  ASHRAETau,                              !- Solar Model Indicator
  ,                                       !- Beam Solar Day Schedule Name
  ,                                       !- Diffuse Solar Day Schedule Name
  0.339,                                  !- ASHRAE Clear Sky Optical Depth for Beam Irradiance {dimensionless}
  2.422;                                  !- ASHRAE Clear Sky Optical Depth for Diffuse Irradiance {dimensionless}

OS:SizingPeriod:DesignDay,
  {25957675-6ea6-4bc3-9e7f-add919774afd}, !- Handle
  Houghton County Ann Clg .4% Condns WB=>MDB 1, !- Name
  27.8,                                   !- Maximum Dry-Bulb Temperature {C}
  10.4,                                   !- Daily Dry-Bulb Temperature Range {deltaC}
  97435,                                  !- Barometric Pressure {Pa}
  4.7,                                    !- Wind Speed {m/s}
  270,                                    !- Wind Direction {deg}
  ,                                       !- Sky Clearness
  No,                                     !- Rain Indicator
  No,                                     !- Snow Indicator
  21,                                     !- Day of Month
  7,                                      !- Month
  SummerDesignDay,                        !- Day Type
  No,                                     !- Daylight Saving Time Indicator
  Wetbulb,                                !- Humidity Condition Type
  ,                                       !- Humidity Condition Day Schedule Name
  22.5,                                   !- Wetbulb or DewPoint at Maximum Dry-Bulb {C}
  ,                                       !- Humidity Ratio at Maximum Dry-Bulb {kgWater/kgDryAir}
  ,                                       !- Enthalpy at Maximum Dry-Bulb {J/kg}
  DefaultMultipliers,                     !- Dry-Bulb Temperature Range Modifier Type
  ,                                       !- Dry-Bulb Temperature Range Modifier Day Schedule Name
  ASHRAETau,                              !- Solar Model Indicator
  ,                                       !- Beam Solar Day Schedule Name
  ,                                       !- Diffuse Solar Day Schedule Name
  0.339,                                  !- ASHRAE Clear Sky Optical Depth for Beam Irradiance {dimensionless}
  2.422;                                  !- ASHRAE Clear Sky Optical Depth for Diffuse Irradiance {dimensionless}

OS:SizingPeriod:DesignDay,
  {5c261a9f-61bb-49d6-bcef-12a21071d8c5}, !- Handle
  Houghton County Ann Clg 1% Condns DB=>MWB 1, !- Name
  27.4,                                   !- Maximum Dry-Bulb Temperature {C}
  10.4,                                   !- Daily Dry-Bulb Temperature Range {deltaC}
  97435,                                  !- Barometric Pressure {Pa}
  4.7,                                    !- Wind Speed {m/s}
  270,                                    !- Wind Direction {deg}
  ,                                       !- Sky Clearness
  No,                                     !- Rain Indicator
  No,                                     !- Snow Indicator
  21,                                     !- Day of Month
  7,                                      !- Month
  SummerDesignDay,                        !- Day Type
  No,                                     !- Daylight Saving Time Indicator
  Wetbulb,                                !- Humidity Condition Type
  ,                                       !- Humidity Condition Day Schedule Name
  19.9,                                   !- Wetbulb or DewPoint at Maximum Dry-Bulb {C}
  ,                                       !- Humidity Ratio at Maximum Dry-Bulb {kgWater/kgDryAir}
  ,                                       !- Enthalpy at Maximum Dry-Bulb {J/kg}
  DefaultMultipliers,                     !- Dry-Bulb Temperature Range Modifier Type
  ,                                       !- Dry-Bulb Temperature Range Modifier Day Schedule Name
  ASHRAETau,                              !- Solar Model Indicator
  ,                                       !- Beam Solar Day Schedule Name
  ,                                       !- Diffuse Solar Day Schedule Name
  0.339,                                  !- ASHRAE Clear Sky Optical Depth for Beam Irradiance {dimensionless}
  2.422;                                  !- ASHRAE Clear Sky Optical Depth for Diffuse Irradiance {dimensionless}

OS:SizingPeriod:DesignDay,
  {7d84c15d-655a-418f-94dd-757947defbec}, !- Handle
  Houghton County Ann Clg 2% Condns DP=>MDB 1, !- Name
  22.8,                                   !- Maximum Dry-Bulb Temperature {C}
  10.4,                                   !- Daily Dry-Bulb Temperature Range {deltaC}
  97435,                                  !- Barometric Pressure {Pa}
  4.7,                                    !- Wind Speed {m/s}
  270,                                    !- Wind Direction {deg}
  ,                                       !- Sky Clearness
  No,                                     !- Rain Indicator
  No,                                     !- Snow Indicator
  21,                                     !- Day of Month
  7,                                      !- Month
  SummerDesignDay,                        !- Day Type
  No,                                     !- Daylight Saving Time Indicator
  Dewpoint,                               !- Humidity Condition Type
  ,                                       !- Humidity Condition Day Schedule Name
  18.5,                                   !- Wetbulb or DewPoint at Maximum Dry-Bulb {C}
  ,                                       !- Humidity Ratio at Maximum Dry-Bulb {kgWater/kgDryAir}
  ,                                       !- Enthalpy at Maximum Dry-Bulb {J/kg}
  DefaultMultipliers,                     !- Dry-Bulb Temperature Range Modifier Type
  ,                                       !- Dry-Bulb Temperature Range Modifier Day Schedule Name
  ASHRAETau,                              !- Solar Model Indicator
  ,                                       !- Beam Solar Day Schedule Name
  ,                                       !- Diffuse Solar Day Schedule Name
  0.339,                                  !- ASHRAE Clear Sky Optical Depth for Beam Irradiance {dimensionless}
  2.422;                                  !- ASHRAE Clear Sky Optical Depth for Diffuse Irradiance {dimensionless}

OS:SizingPeriod:DesignDay,
  {dc62e4f2-6cbe-4ac4-a3e8-14f862a9750a}, !- Handle
  Houghton County Ann Htg 99% Condns DB 1, !- Name
  -18,                                    !- Maximum Dry-Bulb Temperature {C}
  0,                                      !- Daily Dry-Bulb Temperature Range {deltaC}
  97435,                                  !- Barometric Pressure {Pa}
  4.3,                                    !- Wind Speed {m/s}
  310,                                    !- Wind Direction {deg}
  0,                                      !- Sky Clearness
  No,                                     !- Rain Indicator
  No,                                     !- Snow Indicator
  21,                                     !- Day of Month
  1,                                      !- Month
  WinterDesignDay,                        !- Day Type
  No,                                     !- Daylight Saving Time Indicator
  Wetbulb,                                !- Humidity Condition Type
  ,                                       !- Humidity Condition Day Schedule Name
  -18,                                    !- Wetbulb or DewPoint at Maximum Dry-Bulb {C}
  ,                                       !- Humidity Ratio at Maximum Dry-Bulb {kgWater/kgDryAir}
  ,                                       !- Enthalpy at Maximum Dry-Bulb {J/kg}
  DefaultMultipliers,                     !- Dry-Bulb Temperature Range Modifier Type
  ,                                       !- Dry-Bulb Temperature Range Modifier Day Schedule Name
  ASHRAEClearSky;                         !- Solar Model Indicator

OS:SizingPeriod:DesignDay,
  {3f64533c-1f2e-42c1-8acc-124ac0fe6434}, !- Handle
  Houghton County Ann Htg 99.6% Condns DB 1, !- Name
  -20.4,                                  !- Maximum Dry-Bulb Temperature {C}
  0,                                      !- Daily Dry-Bulb Temperature Range {deltaC}
  97435,                                  !- Barometric Pressure {Pa}
  4.3,                                    !- Wind Speed {m/s}
  310,                                    !- Wind Direction {deg}
  0,                                      !- Sky Clearness
  No,                                     !- Rain Indicator
  No,                                     !- Snow Indicator
  21,                                     !- Day of Month
  1,                                      !- Month
  WinterDesignDay,                        !- Day Type
  No,                                     !- Daylight Saving Time Indicator
  Wetbulb,                                !- Humidity Condition Type
  ,                                       !- Humidity Condition Day Schedule Name
  -20.4,                                  !- Wetbulb or DewPoint at Maximum Dry-Bulb {C}
  ,                                       !- Humidity Ratio at Maximum Dry-Bulb {kgWater/kgDryAir}
  ,                                       !- Enthalpy at Maximum Dry-Bulb {J/kg}
  DefaultMultipliers,                     !- Dry-Bulb Temperature Range Modifier Type
  ,                                       !- Dry-Bulb Temperature Range Modifier Day Schedule Name
  ASHRAEClearSky;                         !- Solar Model Indicator

OS:SizingPeriod:DesignDay,
  {50904d14-1f74-46a4-a55a-e75768f6b93f}, !- Handle
  Houghton County Ann Htg Wind 99% Condns WS=>MCDB 1, !- Name
  -7.4,                                   !- Maximum Dry-Bulb Temperature {C}
  0,                                      !- Daily Dry-Bulb Temperature Range {deltaC}
  97435,                                  !- Barometric Pressure {Pa}
  11.9,                                   !- Wind Speed {m/s}
  310,                                    !- Wind Direction {deg}
  0,                                      !- Sky Clearness
  No,                                     !- Rain Indicator
  No,                                     !- Snow Indicator
  21,                                     !- Day of Month
  1,                                      !- Month
  WinterDesignDay,                        !- Day Type
  No,                                     !- Daylight Saving Time Indicator
  Wetbulb,                                !- Humidity Condition Type
  ,                                       !- Humidity Condition Day Schedule Name
  -7.4,                                   !- Wetbulb or DewPoint at Maximum Dry-Bulb {C}
  ,                                       !- Humidity Ratio at Maximum Dry-Bulb {kgWater/kgDryAir}
  ,                                       !- Enthalpy at Maximum Dry-Bulb {J/kg}
  DefaultMultipliers,                     !- Dry-Bulb Temperature Range Modifier Type
  ,                                       !- Dry-Bulb Temperature Range Modifier Day Schedule Name
  ASHRAEClearSky;                         !- Solar Model Indicator

OS:SizingPeriod:DesignDay,
  {0ae5de84-ef46-4936-924e-0338f5d1e2b1}, !- Handle
  Houghton County April .4% Condns DB=>MCWB 1, !- Name
  22.6,                                   !- Maximum Dry-Bulb Temperature {C}
  8.7,                                    !- Daily Dry-Bulb Temperature Range {deltaC}
  97435,                                  !- Barometric Pressure {Pa}
  4.7,                                    !- Wind Speed {m/s}
  270,                                    !- Wind Direction {deg}
  ,                                       !- Sky Clearness
  No,                                     !- Rain Indicator
  No,                                     !- Snow Indicator
  21,                                     !- Day of Month
  4,                                      !- Month
  SummerDesignDay,                        !- Day Type
  No,                                     !- Daylight Saving Time Indicator
  Wetbulb,                                !- Humidity Condition Type
  ,                                       !- Humidity Condition Day Schedule Name
  14,                                     !- Wetbulb or DewPoint at Maximum Dry-Bulb {C}
  ,                                       !- Humidity Ratio at Maximum Dry-Bulb {kgWater/kgDryAir}
  ,                                       !- Enthalpy at Maximum Dry-Bulb {J/kg}
  DefaultMultipliers,                     !- Dry-Bulb Temperature Range Modifier Type
  ,                                       !- Dry-Bulb Temperature Range Modifier Day Schedule Name
  ASHRAETau,                              !- Solar Model Indicator
  ,                                       !- Beam Solar Day Schedule Name
  ,                                       !- Diffuse Solar Day Schedule Name
  0.3,                                    !- ASHRAE Clear Sky Optical Depth for Beam Irradiance {dimensionless}
  2.506;                                  !- ASHRAE Clear Sky Optical Depth for Diffuse Irradiance {dimensionless}

OS:SizingPeriod:DesignDay,
  {83a65ad5-5304-4494-813d-f1e3da92dc50}, !- Handle
  Houghton County April .4% Condns WB=>MCDB 1, !- Name
  20.5,                                   !- Maximum Dry-Bulb Temperature {C}
  8.7,                                    !- Daily Dry-Bulb Temperature Range {deltaC}
  97435,                                  !- Barometric Pressure {Pa}
  4.7,                                    !- Wind Speed {m/s}
  270,                                    !- Wind Direction {deg}
  ,                                       !- Sky Clearness
  No,                                     !- Rain Indicator
  No,                                     !- Snow Indicator
  21,                                     !- Day of Month
  4,                                      !- Month
  SummerDesignDay,                        !- Day Type
  No,                                     !- Daylight Saving Time Indicator
  Wetbulb,                                !- Humidity Condition Type
  ,                                       !- Humidity Condition Day Schedule Name
  15.7,                                   !- Wetbulb or DewPoint at Maximum Dry-Bulb {C}
  ,                                       !- Humidity Ratio at Maximum Dry-Bulb {kgWater/kgDryAir}
  ,                                       !- Enthalpy at Maximum Dry-Bulb {J/kg}
  DefaultMultipliers,                     !- Dry-Bulb Temperature Range Modifier Type
  ,                                       !- Dry-Bulb Temperature Range Modifier Day Schedule Name
  ASHRAETau,                              !- Solar Model Indicator
  ,                                       !- Beam Solar Day Schedule Name
  ,                                       !- Diffuse Solar Day Schedule Name
  0.3,                                    !- ASHRAE Clear Sky Optical Depth for Beam Irradiance {dimensionless}
  2.506;                                  !- ASHRAE Clear Sky Optical Depth for Diffuse Irradiance {dimensionless}

OS:SizingPeriod:DesignDay,
  {723fff22-6924-4ef4-9ee5-d69c539cf3f4}, !- Handle
  Houghton County August .4% Condns DB=>MCWB 1, !- Name
  31,                                     !- Maximum Dry-Bulb Temperature {C}
  10,                                     !- Daily Dry-Bulb Temperature Range {deltaC}
  97435,                                  !- Barometric Pressure {Pa}
  4.7,                                    !- Wind Speed {m/s}
  270,                                    !- Wind Direction {deg}
  ,                                       !- Sky Clearness
  No,                                     !- Rain Indicator
  No,                                     !- Snow Indicator
  21,                                     !- Day of Month
  8,                                      !- Month
  SummerDesignDay,                        !- Day Type
  No,                                     !- Daylight Saving Time Indicator
  Wetbulb,                                !- Humidity Condition Type
  ,                                       !- Humidity Condition Day Schedule Name
  22,                                     !- Wetbulb or DewPoint at Maximum Dry-Bulb {C}
  ,                                       !- Humidity Ratio at Maximum Dry-Bulb {kgWater/kgDryAir}
  ,                                       !- Enthalpy at Maximum Dry-Bulb {J/kg}
  DefaultMultipliers,                     !- Dry-Bulb Temperature Range Modifier Type
  ,                                       !- Dry-Bulb Temperature Range Modifier Day Schedule Name
  ASHRAETau,                              !- Solar Model Indicator
  ,                                       !- Beam Solar Day Schedule Name
  ,                                       !- Diffuse Solar Day Schedule Name
  0.343,                                  !- ASHRAE Clear Sky Optical Depth for Beam Irradiance {dimensionless}
  2.459;                                  !- ASHRAE Clear Sky Optical Depth for Diffuse Irradiance {dimensionless}

OS:SizingPeriod:DesignDay,
  {2ec7fe7c-2ae5-4777-9a3a-d98950c21b25}, !- Handle
  Houghton County August .4% Condns WB=>MCDB 1, !- Name
  28.9,                                   !- Maximum Dry-Bulb Temperature {C}
  10,                                     !- Daily Dry-Bulb Temperature Range {deltaC}
  97435,                                  !- Barometric Pressure {Pa}
  4.7,                                    !- Wind Speed {m/s}
  270,                                    !- Wind Direction {deg}
  ,                                       !- Sky Clearness
  No,                                     !- Rain Indicator
  No,                                     !- Snow Indicator
  21,                                     !- Day of Month
  8,                                      !- Month
  SummerDesignDay,                        !- Day Type
  No,                                     !- Daylight Saving Time Indicator
  Wetbulb,                                !- Humidity Condition Type
  ,                                       !- Humidity Condition Day Schedule Name
  23.9,                                   !- Wetbulb or DewPoint at Maximum Dry-Bulb {C}
  ,                                       !- Humidity Ratio at Maximum Dry-Bulb {kgWater/kgDryAir}
  ,                                       !- Enthalpy at Maximum Dry-Bulb {J/kg}
  DefaultMultipliers,                     !- Dry-Bulb Temperature Range Modifier Type
  ,                                       !- Dry-Bulb Temperature Range Modifier Day Schedule Name
  ASHRAETau,                              !- Solar Model Indicator
  ,                                       !- Beam Solar Day Schedule Name
  ,                                       !- Diffuse Solar Day Schedule Name
  0.343,                                  !- ASHRAE Clear Sky Optical Depth for Beam Irradiance {dimensionless}
  2.459;                                  !- ASHRAE Clear Sky Optical Depth for Diffuse Irradiance {dimensionless}

OS:SizingPeriod:DesignDay,
  {1908af2c-84ae-4072-96c4-407a52d340d1}, !- Handle
  Houghton County December .4% Condns DB=>MCWB 1, !- Name
  6.2,                                    !- Maximum Dry-Bulb Temperature {C}
  5.6,                                    !- Daily Dry-Bulb Temperature Range {deltaC}
  97435,                                  !- Barometric Pressure {Pa}
  4.7,                                    !- Wind Speed {m/s}
  270,                                    !- Wind Direction {deg}
  ,                                       !- Sky Clearness
  No,                                     !- Rain Indicator
  No,                                     !- Snow Indicator
  21,                                     !- Day of Month
  12,                                     !- Month
  SummerDesignDay,                        !- Day Type
  No,                                     !- Daylight Saving Time Indicator
  Wetbulb,                                !- Humidity Condition Type
  ,                                       !- Humidity Condition Day Schedule Name
  3.5,                                    !- Wetbulb or DewPoint at Maximum Dry-Bulb {C}
  ,                                       !- Humidity Ratio at Maximum Dry-Bulb {kgWater/kgDryAir}
  ,                                       !- Enthalpy at Maximum Dry-Bulb {J/kg}
  DefaultMultipliers,                     !- Dry-Bulb Temperature Range Modifier Type
  ,                                       !- Dry-Bulb Temperature Range Modifier Day Schedule Name
  ASHRAETau,                              !- Solar Model Indicator
  ,                                       !- Beam Solar Day Schedule Name
  ,                                       !- Diffuse Solar Day Schedule Name
  0.272,                                  !- ASHRAE Clear Sky Optical Depth for Beam Irradiance {dimensionless}
  2.701;                                  !- ASHRAE Clear Sky Optical Depth for Diffuse Irradiance {dimensionless}

OS:SizingPeriod:DesignDay,
  {bd946eba-9380-42fa-8c4a-a1b0d6da6e23}, !- Handle
  Houghton County December .4% Condns WB=>MCDB 1, !- Name
  5.5,                                    !- Maximum Dry-Bulb Temperature {C}
  5.6,                                    !- Daily Dry-Bulb Temperature Range {deltaC}
  97435,                                  !- Barometric Pressure {Pa}
  4.7,                                    !- Wind Speed {m/s}
  270,                                    !- Wind Direction {deg}
  ,                                       !- Sky Clearness
  No,                                     !- Rain Indicator
  No,                                     !- Snow Indicator
  21,                                     !- Day of Month
  12,                                     !- Month
  SummerDesignDay,                        !- Day Type
  No,                                     !- Daylight Saving Time Indicator
  Wetbulb,                                !- Humidity Condition Type
  ,                                       !- Humidity Condition Day Schedule Name
  4.3,                                    !- Wetbulb or DewPoint at Maximum Dry-Bulb {C}
  ,                                       !- Humidity Ratio at Maximum Dry-Bulb {kgWater/kgDryAir}
  ,                                       !- Enthalpy at Maximum Dry-Bulb {J/kg}
  DefaultMultipliers,                     !- Dry-Bulb Temperature Range Modifier Type