
OS:Version,
  {27f3c855-0c52-469f-951d-702eebd38d88}, !- Handle
  2.6.0;                                  !- Version Identifier

