
OS:Version,
  {7a2d18a9-7fdc-4d96-9359-03794be6c91d}, !- Handle
  2.9.1;                                  !- Version Identifier

OS:Facility,
  {0656d003-8f42-4445-9dcc-34c881ed66d3}; !- Handle

OS:Site,
  {5fa47c75-66ac-4e6d-8e93-3a81919d1955}, !- Handle
  Fort Collins Sawrs_CO_USA,              !- Name
  40.58,                                  !- Latitude {deg}
  -105.08,                                !- Longitude {deg}
  -7,                                     !- Time Zone {hr}
  1525,                                   !- Elevation {m}
  City;                                   !- Terrain

OS:SimulationControl,
  {356fe668-9c87-4dbd-935d-6b2052cece95}, !- Handle
  ,                                       !- Do Zone Sizing Calculation
  ,                                       !- Do System Sizing Calculation
  ,                                       !- Do Plant Sizing Calculation
  No,                                     !- Run Simulation for Sizing Periods
  Yes;                                    !- Run Simulation for Weather File Run Periods

OS:Sizing:Parameters,
  {3ba91026-5185-48c9-8a1b-2c6e50af7058}, !- Handle
  1.25,                                   !- Heating Sizing Factor
  1.15;                                   !- Cooling Sizing Factor

OS:Timestep,
  {493316be-1ca0-4fc2-850d-9b90cbfe3719}, !- Handle
  4;                                      !- Number of Timesteps per Hour

OS:ShadowCalculation,
  {57ffebb5-7f9f-4cbe-b60a-8b2b2ddc67c1}, !- Handle
  20,                                     !- Calculation Frequency
  15000;                                  !- Maximum Figures in Shadow Overlap Calculations

OS:HeatBalanceAlgorithm,
  {34e047de-d331-4f6f-9f06-cb7d04c1475b}, !- Handle
  ConductionTransferFunction,             !- Algorithm
  200;                                    !- Surface Temperature Upper Limit {C}

OS:RunPeriod,
  {b556edd4-047d-4dcc-a54c-aaa16ddd40ef}, !- Handle
  Run Period 1,                           !- Name
  1,                                      !- Begin Month
  1,                                      !- Begin Day of Month
  12,                                     !- End Month
  30,                                     !- End Day of Month
  ,                                       !- Use Weather File Holidays and Special Days
  ,                                       !- Use Weather File Daylight Saving Period
  ,                                       !- Apply Weekend Holiday Rule
  ,                                       !- Use Weather File Rain Indicators
  ,                                       !- Use Weather File Snow Indicators
  ;                                       !- Number of Times Runperiod to be Repeated

OS:LifeCycleCost:Parameters,
  {258fab2f-8b9f-4389-a447-7017f57cc70c}, !- Handle
  ,                                       !- Analysis Type
  ,                                       !- Discounting Convention
  ,                                       !- Inflation Approach
  ,                                       !- Real Discount Rate
  ,                                       !- Nominal Discount Rate
  ,                                       !- Inflation
  ,                                       !- Base Date Month
  ,                                       !- Base Date Year
  ,                                       !- Service Date Month
  ,                                       !- Service Date Year
  ;                                       !- Length of Study Period in Years

OS:WeatherFile,
  {d1262dac-89ea-4806-a14c-ba0f60717fe6}, !- Handle
  Fort Collins Sawrs,                     !- City
  CO,                                     !- State Province Region
  USA,                                    !- Country
  customized weather file,                !- Data Source
  724697,                                 !- WMO Number
  40.58,                                  !- Latitude {deg}
  -105.08,                                !- Longitude {deg}
  -7,                                     !- Time Zone {hr}
  1525,                                   !- Elevation {m}
  file:////weather/G0800690.epw,          !- Url
  226BE93E;                               !- Checksum

OS:Site:WaterMainsTemperature,
  {e59f39f4-ca9c-4d65-8f59-7bbd22f618fa}, !- Handle
  Correlation,                            !- Calculation Method
  ,                                       !- Temperature Schedule Name
  12.0175,                                !- Annual Average Outdoor Air Temperature {C}
  24.29;                                  !- Maximum Difference In Monthly Average Outdoor Air Temperatures {deltaC}

OS:SizingPeriod:DesignDay,
  {9e794b44-078d-4fa1-ab87-5fe64601d465}, !- Handle
  Fort Collins Sawrs Ann Clg .4% Condns DB=>MWB 1, !- Name
  32.3,                                   !- Maximum Dry-Bulb Temperature {C}
  13.6,                                   !- Daily Dry-Bulb Temperature Range {deltaC}
  16.1,                                   !- Humidity Indicating Conditions at Maximum Dry-Bulb
  84297,                                  !- Barometric Pressure {Pa}
  3.7,                                    !- Wind Speed {m/s}
  90,                                     !- Wind Direction {deg}
  0,                                      !- Sky Clearness
  0,                                      !- Rain Indicator
  0,                                      !- Snow Indicator
  21,                                     !- Day of Month
  7,                                      !- Month
  SummerDesignDay,                        !- Day Type
  0,                                      !- Daylight Saving Time Indicator
  Wetbulb,                                !- Humidity Indicating Type
  ,                                       !- Humidity Indicating Day Schedule Name
  DefaultMultipliers,                     !- Dry-Bulb Temperature Range Modifier Type
  ,                                       !- Dry-Bulb Temperature Range Modifier Schedule Name
  ASHRAETau,                              !- Solar Model Indicator
  ,                                       !- Beam Solar Day Schedule Name
  ,                                       !- Diffuse Solar Day Schedule Name
  0.328,                                  !- ASHRAE Taub {dimensionless}
  2.426;                                  !- ASHRAE Taud {dimensionless}

OS:SizingPeriod:DesignDay,
  {77b3ce2c-1b72-45d5-b9dc-c80644ea1b6a}, !- Handle
  Fort Collins Sawrs Ann Clg .4% Condns WB=>MDB 1, !- Name
  27.1,                                   !- Maximum Dry-Bulb Temperature {C}
  13.6,                                   !- Daily Dry-Bulb Temperature Range {deltaC}
  18.1,                                   !- Humidity Indicating Conditions at Maximum Dry-Bulb
  84297,                                  !- Barometric Pressure {Pa}
  3.7,                                    !- Wind Speed {m/s}
  90,                                     !- Wind Direction {deg}
  0,                                      !- Sky Clearness
  0,                                      !- Rain Indicator
  0,                                      !- Snow Indicator
  21,                                     !- Day of Month
  7,                                      !- Month
  SummerDesignDay,                        !- Day Type
  0,                                      !- Daylight Saving Time Indicator
  Wetbulb,                                !- Humidity Indicating Type
  ,                                       !- Humidity Indicating Day Schedule Name
  DefaultMultipliers,                     !- Dry-Bulb Temperature Range Modifier Type
  ,                                       !- Dry-Bulb Temperature Range Modifier Schedule Name
  ASHRAETau,                              !- Solar Model Indicator
  ,                                       !- Beam Solar Day Schedule Name
  ,                                       !- Diffuse Solar Day Schedule Name
  0.328,                                  !- ASHRAE Taub {dimensionless}
  2.426;                                  !- ASHRAE Taud {dimensionless}

OS:SizingPeriod:DesignDay,
  {451654ac-12fe-4a14-9b82-effc233ecba9}, !- Handle
  Fort Collins Sawrs Ann Clg 1% Condns DB=>MWB 1, !- Name
  30.7,                                   !- Maximum Dry-Bulb Temperature {C}
  13.6,                                   !- Daily Dry-Bulb Temperature Range {deltaC}
  15.7,                                   !- Humidity Indicating Conditions at Maximum Dry-Bulb
  84297,                                  !- Barometric Pressure {Pa}
  3.7,                                    !- Wind Speed {m/s}
  90,                                     !- Wind Direction {deg}
  0,                                      !- Sky Clearness
  0,                                      !- Rain Indicator
  0,                                      !- Snow Indicator
  21,                                     !- Day of Month
  7,                                      !- Month
  SummerDesignDay,                        !- Day Type
  0,                                      !- Daylight Saving Time Indicator
  Wetbulb,                                !- Humidity Indicating Type
  ,                                       !- Humidity Indicating Day Schedule Name
  DefaultMultipliers,                     !- Dry-Bulb Temperature Range Modifier Type
  ,                                       !- Dry-Bulb Temperature Range Modifier Schedule Name
  ASHRAETau,                              !- Solar Model Indicator
  ,                                       !- Beam Solar Day Schedule Name
  ,                                       !- Diffuse Solar Day Schedule Name
  0.328,                                  !- ASHRAE Taub {dimensionless}
  2.426;                                  !- ASHRAE Taud {dimensionless}

OS:SizingPeriod:DesignDay,
  {5d78985c-6e12-4171-8e79-264e8db499cb}, !- Handle
  Fort Collins Sawrs Ann Clg 2% Condns DP=>MDB 1, !- Name
  20.4,                                   !- Maximum Dry-Bulb Temperature {C}
  13.6,                                   !- Daily Dry-Bulb Temperature Range {deltaC}
  13.9,                                   !- Humidity Indicating Conditions at Maximum Dry-Bulb
  84297,                                  !- Barometric Pressure {Pa}
  3.7,                                    !- Wind Speed {m/s}
  90,                                     !- Wind Direction {deg}
  0,                                      !- Sky Clearness
  0,                                      !- Rain Indicator
  0,                                      !- Snow Indicator
  21,                                     !- Day of Month
  7,                                      !- Month
  SummerDesignDay,                        !- Day Type
  0,                                      !- Daylight Saving Time Indicator
  Dewpoint,                               !- Humidity Indicating Type
  ,                                       !- Humidity Indicating Day Schedule Name
  DefaultMultipliers,                     !- Dry-Bulb Temperature Range Modifier Type
  ,                                       !- Dry-Bulb Temperature Range Modifier Schedule Name
  ASHRAETau,                              !- Solar Model Indicator
  ,                                       !- Beam Solar Day Schedule Name
  ,                                       !- Diffuse Solar Day Schedule Name
  0.328,                                  !- ASHRAE Taub {dimensionless}
  2.426;                                  !- ASHRAE Taud {dimensionless}

OS:SizingPeriod:DesignDay,
  {927eefc6-ea72-4230-8f7a-793b8a5f7536}, !- Handle
  Fort Collins Sawrs Ann Htg 99% Condns DB 1, !- Name
  -15.1,                                  !- Maximum Dry-Bulb Temperature {C}
  0,                                      !- Daily Dry-Bulb Temperature Range {deltaC}
  -15.1,                                  !- Humidity Indicating Conditions at Maximum Dry-Bulb
  84297,                                  !- Barometric Pressure {Pa}
  2.1,                                    !- Wind Speed {m/s}
  20,                                     !- Wind Direction {deg}
  0,                                      !- Sky Clearness
  0,                                      !- Rain Indicator
  0,                                      !- Snow Indicator
  21,                                     !- Day of Month
  12,                                     !- Month
  WinterDesignDay,                        !- Day Type
  0,                                      !- Daylight Saving Time Indicator
  Wetbulb,                                !- Humidity Indicating Type
  ,                                       !- Humidity Indicating Day Schedule Name
  DefaultMultipliers,                     !- Dry-Bulb Temperature Range Modifier Type
  ,                                       !- Dry-Bulb Temperature Range Modifier Schedule Name
  ASHRAEClearSky;                         !- Solar Model Indicator

OS:SizingPeriod:DesignDay,
  {d0445e8d-7075-4578-b612-4367777cb593}, !- Handle
  Fort Collins Sawrs Ann Htg 99.6% Condns DB 1, !- Name
  -19.2,                                  !- Maximum Dry-Bulb Temperature {C}
  0,                                      !- Daily Dry-Bulb Temperature Range {deltaC}
  -19.2,                                  !- Humidity Indicating Conditions at Maximum Dry-Bulb
  84297,                                  !- Barometric Pressure {Pa}
  2.1,                                    !- Wind Speed {m/s}
  20,                                     !- Wind Direction {deg}
  0,                                      !- Sky Clearness
  0,                                      !- Rain Indicator
  0,                                      !- Snow Indicator
  21,                                     !- Day of Month
  12,                                     !- Month
  WinterDesignDay,                        !- Day Type
  0,                                      !- Daylight Saving Time Indicator
  Wetbulb,                                !- Humidity Indicating Type
  ,                                       !- Humidity Indicating Day Schedule Name
  DefaultMultipliers,                     !- Dry-Bulb Temperature Range Modifier Type
  ,                                       !- Dry-Bulb Temperature Range Modifier Schedule Name
  ASHRAEClearSky;                         !- Solar Model Indicator

OS:SizingPeriod:DesignDay,
  {6a3d6f55-c288-4c5b-9887-221d19c8168f}, !- Handle
  Fort Collins Sawrs Ann Htg Wind 99% Condns WS=>MCDB 1, !- Name
  6.3,                                    !- Maximum Dry-Bulb Temperature {C}
  0,                                      !- Daily Dry-Bulb Temperature Range {deltaC}
  6.3,                                    !- Humidity Indicating Conditions at Maximum Dry-Bulb
  84297,                                  !- Barometric Pressure {Pa}
  8.8,                                    !- Wind Speed {m/s}
  20,                                     !- Wind Direction {deg}
  0,                                      !- Sky Clearness
  0,                                      !- Rain Indicator
  0,                                      !- Snow Indicator
  21,                                     !- Day of Month
  12,                                     !- Month
  WinterDesignDay,                        !- Day Type
  0,                                      !- Daylight Saving Time Indicator
  Wetbulb,                                !- Humidity Indicating Type
  ,                                       !- Humidity Indicating Day Schedule Name
  DefaultMultipliers,                     !- Dry-Bulb Temperature Range Modifier Type
  ,                                       !- Dry-Bulb Temperature Range Modifier Schedule Name
  ASHRAEClearSky;                         !- Solar Model Indicator

OS:SizingPeriod:DesignDay,
  {76564d51-d80e-4623-b97e-26e1737db628}, !- Handle
  Fort Collins Sawrs April .4% Condns DB=>MCWB 1, !- Name
  27.4,                                   !- Maximum Dry-Bulb Temperature {C}
  13.3,                                   !- Daily Dry-Bulb Temperature Range {deltaC}
  12.1,                                   !- Humidity Indicating Conditions at Maximum Dry-Bulb
  84297,                                  !- Barometric Pressure {Pa}
  3.7,                                    !- Wind Speed {m/s}
  90,                                     !- Wind Direction {deg}
  0,                                      !- Sky Clearness
  0,                                      !- Rain Indicator
  0,                                      !- Snow Indicator
  21,                                     !- Day of Month
  4,                                      !- Month
  SummerDesignDay,                        !- Day Type
  0,                                      !- Daylight Saving Time Indicator
  Wetbulb,                                !- Humidity Indicating Type
  ,                                       !- Humidity Indicating Day Schedule Name
  DefaultMultipliers,                     !- Dry-Bulb Temperature Range Modifier Type
  ,                                       !- Dry-Bulb Temperature Range Modifier Schedule Name
  ASHRAETau,                              !- Solar Model Indicator
  ,                                       !- Beam Solar Day Schedule Name
  ,                                       !- Diffuse Solar Day Schedule Name
  0.287,                                  !- ASHRAE Taub {dimensionless}
  2.478;                                  !- ASHRAE Taud {dimensionless}

OS:SizingPeriod:DesignDay,
  {df1a044d-f3db-4d37-9922-02e64d848278}, !- Handle
  Fort Collins Sawrs April .4% Condns WB=>MCDB 1, !- Name
  25.4,                                   !- Maximum Dry-Bulb Temperature {C}
  13.3,                                   !- Daily Dry-Bulb Temperature Range {deltaC}
  13.8,                                   !- Humidity Indicating Conditions at Maximum Dry-Bulb
  84297,                                  !- Barometric Pressure {Pa}
  3.7,                                    !- Wind Speed {m/s}
  90,                                     !- Wind Direction {deg}
  0,                                      !- Sky Clearness
  0,                                      !- Rain Indicator
  0,                                      !- Snow Indicator
  21,                                     !- Day of Month
  4,                                      !- Month
  SummerDesignDay,                        !- Day Type
  0,                                      !- Daylight Saving Time Indicator
  Wetbulb,                                !- Humidity Indicating Type
  ,                                       !- Humidity Indicating Day Schedule Name
  DefaultMultipliers,                     !- Dry-Bulb Temperature Range Modifier Type
  ,                                       !- Dry-Bulb Temperature Range Modifier Schedule Name
  ASHRAETau,                              !- Solar Model Indicator
  ,                                       !- Beam Solar Day Schedule Name
  ,                                       !- Diffuse Solar Day Schedule Name
  0.287,                                  !- ASHRAE Taub {dimensionless}
  2.478;                                  !- ASHRAE Taud {dimensionless}

OS:SizingPeriod:DesignDay,
  {f93c72c4-eac0-41f1-a3ae-e28eb7fd0811}, !- Handle
  Fort Collins Sawrs August .4% Condns DB=>MCWB 1, !- Name
  32.9,                                   !- Maximum Dry-Bulb Temperature {C}
  13.1,                                   !- Daily Dry-Bulb Temperature Range {deltaC}
  15.5,                                   !- Humidity Indicating Conditions at Maximum Dry-Bulb
  84297,                                  !- Barometric Pressure {Pa}
  3.7,                                    !- Wind Speed {m/s}
  90,                                     !- Wind Direction {deg}
  0,                                      !- Sky Clearness
  0,                                      !- Rain Indicator
  0,                                      !- Snow Indicator
  21,                                     !- Day of Month
  8,                                      !- Month
  SummerDesignDay,                        !- Day Type
  0,                                      !- Daylight Saving Time Indicator
  Wetbulb,                                !- Humidity Indicating Type
  ,                                       !- Humidity Indicating Day Schedule Name
  DefaultMultipliers,                     !- Dry-Bulb Temperature Range Modifier Type
  ,                                       !- Dry-Bulb Temperature Range Modifier Schedule Name
  ASHRAETau,                              !- Solar Model Indicator
  ,                                       !- Beam Solar Day Schedule Name
  ,                                       !- Diffuse Solar Day Schedule Name
  0.334,                                  !- ASHRAE Taub {dimensionless}
  2.44;                                   !- ASHRAE Taud {dimensionless}

OS:SizingPeriod:DesignDay,
  {b3f3e610-6c6f-4978-9ff3-f04227fe9b76}, !- Handle
  Fort Collins Sawrs August .4% Condns WB=>MCDB 1, !- Name
  25.9,                                   !- Maximum Dry-Bulb Temperature {C}
  13.1,                                   !- Daily Dry-Bulb Temperature Range {deltaC}
  18.6,                                   !- Humidity Indicating Conditions at Maximum Dry-Bulb
  84297,                                  !- Barometric Pressure {Pa}
  3.7,                                    !- Wind Speed {m/s}
  90,                                     !- Wind Direction {deg}
  0,                                      !- Sky Clearness
  0,                                      !- Rain Indicator
  0,                                      !- Snow Indicator
  21,                                     !- Day of Month
  8,                                      !- Month
  SummerDesignDay,                        !- Day Type
  0,                                      !- Daylight Saving Time Indicator
  Wetbulb,                                !- Humidity Indicating Type
  ,                                       !- Humidity Indicating Day Schedule Name
  DefaultMultipliers,                     !- Dry-Bulb Temperature Range Modifier Type
  ,                                       !- Dry-Bulb Temperature Range Modifier Schedule Name
  ASHRAETau,                              !- Solar Model Indicator
  ,                                       !- Beam Solar Day Schedule Name
  ,                                       !- Diffuse Solar Day Schedule Name
  0.334,                                  !- ASHRAE Taub {dimensionless}
  2.44;                                   !- ASHRAE Taud {dimensionless}

OS:SizingPeriod:DesignDay,
  {6a566774-2fde-421e-96b0-8e8f44969092}, !- Handle
  Fort Collins Sawrs December .4% Condns DB=>MCWB 1, !- Name
  16.2,                                   !- Maximum Dry-Bulb Temperature {C}
  12.3,                                   !- Daily Dry-Bulb Temperature Range {deltaC}
  6,                                      !- Humidity Indicating Conditions at Maximum Dry-Bulb
  84297,                                  !- Barometric Pressure {Pa}
  3.7,                                    !- Wind Speed {m/s}
  90,                                     !- Wind Direction {deg}
  0,                                      !- Sky Clearness
  0,                                      !- Rain Indicator
  0,                                      !- Snow Indicator
  21,                                     !- Day of Month
  12,                                     !- Month
  SummerDesignDay,                        !- Day Type
  0,                                      !- Daylight Saving Time Indicator
  Wetbulb,                                !- Humidity Indicating Type
  ,                                       !- Humidity Indicating Day Schedule Name
  DefaultMultipliers,                     !- Dry-Bulb Temperature Range Modifier Type
  ,                                       !- Dry-Bulb Temperature Range Modifier Schedule Name
  ASHRAETau,                              !- Solar Model Indicator
  ,                                       !- Beam Solar Day Schedule Name
  ,                                       !- Diffuse Solar Day Schedule Name
  0.262,                                  !- ASHRAE Taub {dimensionless}
  2.566;                                  !- ASHRAE Taud {dimensionless}

OS:SizingPeriod:DesignDay,
  {4e868d48-ee87-41c1-8311-59e0a43b79ce}, !- Handle
  Fort Collins Sawrs December .4% Condns WB=>MCDB 1, !- Name
  14.4,                                   !- Maximum Dry-Bulb Temperature {C}
  12.3,                                   !- Daily Dry-Bulb Temperature Range {deltaC}
  6.9,                                    !- Humidity Indicating Conditions at Maximum Dry-Bulb
  84297,                                  !- Barometric Pressure {Pa}
  3.7,                                    !- Wind Speed {m/s}
  90,                                     !- Wind Direction {deg}
  0,                                      !- Sky Clearness
  0,                                      !- Rain Indicator
  0,                                      !- Snow Indicator
  21,                                     !- Day of Month
  12,                                     !- Month
  SummerDesignDay,                        !- Day Type
  0,                                      !- Daylight Saving Time Indicator
  Wetbulb,                                !- Humidity Indicating Type
  ,                                       !- Humidity Indicating Day Schedule Name
  DefaultMultipliers,                     !- Dry-Bulb Temperature Range Modifier Type
  ,                                       !- Dry-Bulb Temperature Range Modifier Schedule Name
  ASHRAETau,                              !- Solar Model Indicator
  ,                                       !- Beam Solar Day Schedule Name
  ,                                       !- Diffuse Solar Day Schedule Name
  0.262,                                  !- ASHRAE Taub {dimensionless}
  2.566;                                  !- ASHRAE Taud {dimensionless}

OS:SizingPeriod:DesignDay,
  {d0ed7e85-6887-4ba2-a976-b3e3a6bafb67}, !- Handle
  Fort Collins Sawrs February .4% Condns DB=>MCWB 1, !- Name
  19,                                     !- Maximum Dry-Bulb Temperature {C}
  12.3,                                   !- Daily Dry-Bulb Temperature Range {deltaC}
  7.6,                                    !- Humidity Indicating Conditions at Maximum Dry-Bulb
  84297,                                  !- Barometric Pressure {Pa}
  3.7,                                    !- Wind Speed {m/s}
  90,                                     !- Wind Direction {deg}
  0,                                      !- Sky Clearness
  0,                                      !- Rain Indicator
  0,                                      !- Snow Indicator
  21,                                     !- Day of Month
  2,                                      !- Month
  SummerDesignDay,                        !- Day Type
  0,                                      !- Daylight Saving Time Indicator
  Wetbulb,                                !- Humidity Indicating Type
  ,                                       !- Humidity Indicating Day Schedule Name
  DefaultMultipliers,                     !- Dry-Bulb Temperature Range Modifier Type
  ,                                       !- Dry-Bulb Temperature Range Modifier Schedule Name
  ASHRAETau,                              !- Solar Model Indicator
  ,                                       !- Beam Solar Day Schedule Name
  ,                                       !- Diffuse Solar Day Schedule Name
  0.258,                                  !- ASHRAE Taub {dimensionless}
  2.535;                                  !- ASHRAE Taud {dimensionless}

OS:SizingPeriod:DesignDay,
  {27c37bc9-bf57-47e3-b614-92268caf6407}, !- Handle
  Fort Collins Sawrs February .4% Condns WB=>MCDB 1, !- Name
  17.9,                                   !- Maximum Dry-Bulb Temperature {C}
  12.3,                                   !- Daily Dry-Bulb Temperature Range {deltaC}
  8.1,                                    !- Humidity Indicating Conditions at Maximum Dry-Bulb
  84297,                                  !- Barometric Pressure {Pa}
  3.7,                                    !- Wind Speed {m/s}
  90,                                     !- Wind Direction {deg}
  0,                                      !- Sky Clearness
  0,                                      !- Rain Indicator
  0,                                      !- Snow Indicator
  21,                                     !- Day of Month
  2,                                      !- Month
  SummerDesignDay,                        !- Day Type
  0,                                      !- Daylight Saving Time Indicator
  Wetbulb,                                !- Humidity Indicating Type
  ,                                       !- Humidity Indicating Day Schedule Name
  DefaultMultipliers,                     !- Dry-Bulb Temperature Range Modifier Type
  ,                                       !- Dry-Bulb Temperature Range Modifier Schedule Name
  ASHRAETau,                              !- Solar Model Indicator
  ,                                       !- Beam Solar Day Schedule Name
  ,                                       !- Diffuse Solar Day Schedule Name
  0.258,                                  !- ASHRAE Taub {dimensionless}
  2.535;                                  !- ASHRAE Taud {dimensionless}

OS:SizingPeriod:DesignDay,
  {a622c3be-859c-483f-8795-6b2f0a41b539}, !- Handle
  Fort Collins Sawrs January .4% Condns DB=>MCWB 1, !- Name
  15.7,                                   !- Maximum Dry-Bulb Temperature {C}
  12.5,                                   !- Daily Dry-Bulb Temperature Range {deltaC}
  5.3,                                    !- Humidity Indicating Conditions at Maximum Dry-Bulb
  84297,                                  !- Barometric Pressure {Pa}
  3.7,                                    !- Wind Speed {m/s}