
OS:Version,
  {5784764b-22d1-49bf-91e9-89a199c8ef63}, !- Handle
  3.6.1;                                  !- Version Identifier

OS:Facility,
  {d5b8a5b9-9933-48cf-93f5-25da6c69229f}; !- Handle

OS:Site,
  {1240e873-e629-4de2-a187-4fc942d664d2}, !- Handle
  Port Arthur Jeffers,                    !- Name
  29.95,                                  !- Latitude {deg}
  -94.02,                                 !- Longitude {deg}
  -6,                                     !- Time Zone {hr}
  5,                                      !- Elevation {m}
  City;                                   !- Terrain

OS:SimulationControl,
  {d1fc46b7-bf52-45cf-8bab-547aaf697c9b}, !- Handle
  ,                                       !- Do Zone Sizing Calculation
  ,                                       !- Do System Sizing Calculation
  ,                                       !- Do Plant Sizing Calculation
  No,                                     !- Run Simulation for Sizing Periods
  Yes,                                    !- Run Simulation for Weather File Run Periods
  ,                                       !- Loads Convergence Tolerance Value {W}
  ,                                       !- Temperature Convergence Tolerance Value {deltaC}
  ,                                       !- Solar Distribution
  ,                                       !- Maximum Number of Warmup Days
  ,                                       !- Minimum Number of Warmup Days
  No,                                     !- Do HVAC Sizing Simulation for Sizing Periods
  1;                                      !- Maximum Number of HVAC Sizing Simulation Passes

OS:Sizing:Parameters,
  {2be8ca52-13a6-4a6f-9cb7-4c834a3c4b8b}, !- Handle
  1.25,                                   !- Heating Sizing Factor
  1.15;                                   !- Cooling Sizing Factor

OS:Timestep,
  {4b43b4e2-50bc-4a1c-b54c-19fde3ccfb7f}, !- Handle
  4;                                      !- Number of Timesteps per Hour

OS:ShadowCalculation,
  {a68df71d-7fc0-4c72-a9f9-486ebf4bd8e0}, !- Handle
  PolygonClipping,                        !- Shading Calculation Method
  ,                                       !- Shading Calculation Update Frequency Method
  20,                                     !- Shading Calculation Update Frequency
  15000,                                  !- Maximum Figures in Shadow Overlap Calculations
  ,                                       !- Polygon Clipping Algorithm
  512,                                    !- Pixel Counting Resolution
  ,                                       !- Sky Diffuse Modeling Algorithm
  No,                                     !- Output External Shading Calculation Results
  No,                                     !- Disable Self-Shading Within Shading Zone Groups
  No;                                     !- Disable Self-Shading From Shading Zone Groups to Other Zones

OS:HeatBalanceAlgorithm,
  {39cf31e2-5ec1-4638-bd0a-76532c072932}, !- Handle
  ConductionTransferFunction,             !- Algorithm
  200;                                    !- Surface Temperature Upper Limit {C}

OS:RunPeriod,
  {58ce626a-687e-4883-9bc8-580ec9a908bb}, !- Handle
  Run Period 1,                           !- Name
  1,                                      !- Begin Month
  1,                                      !- Begin Day of Month
  12,                                     !- End Month
  31,                                     !- End Day of Month
  ,                                       !- Use Weather File Holidays and Special Days
  ,                                       !- Use Weather File Daylight Saving Period
  ,                                       !- Apply Weekend Holiday Rule
  ,                                       !- Use Weather File Rain Indicators
  ,                                       !- Use Weather File Snow Indicators
  ;                                       !- Number of Times Runperiod to be Repeated

OS:LifeCycleCost:Parameters,
  {bbb40a07-c8ae-4909-a791-07ec2d42186b}, !- Handle
  ,                                       !- Analysis Type
  ,                                       !- Discounting Convention
  ,                                       !- Inflation Approach
  ,                                       !- Real Discount Rate
  ,                                       !- Nominal Discount Rate
  ,                                       !- Inflation
  ,                                       !- Base Date Month
  ,                                       !- Base Date Year
  ,                                       !- Service Date Month
  ,                                       !- Service Date Year
  ;                                       !- Length of Study Period in Years

OS:Site:WaterMainsTemperature,
  {00f67c5a-0a7b-4b72-b4bd-33f7f718b44a}, !- Handle
  Correlation,                            !- Calculation Method
  ,                                       !- Temperature Schedule Name
  20.145,                                 !- Annual Average Outdoor Air Temperature {C}
  19.61;                                  !- Maximum Difference In Monthly Average Outdoor Air Temperatures {deltaC}

OS:ClimateZones,
  {ddf8ba34-7bd1-4e99-ac15-4ae017525747}, !- Handle
  ASHRAE,                                 !- Climate Zone Institution Name 1
  ANSI/ASHRAE Standard 169,               !- Climate Zone Document Name 1
  2006,                                   !- Climate Zone Document Year 1
  ASHRAE 169-2013-2A,                     !- Climate Zone Value 1
  CEC,                                    !- Climate Zone Institution Name 2
  California Climate Zone Descriptions,   !- Climate Zone Document Name 2
  1995,                                   !- Climate Zone Document Year 2
  ;                                       !- Climate Zone Value 2

OS:Building,
  {1b28c290-1ba4-4785-a12e-a2c234e6f91a}, !- Handle
  ComStock DOE Ref 1980-2004|Warehouse,   !- Name
  ,                                       !- Building Sector Type
  135,                                    !- North Axis {deg}
  ,                                       !- Nominal Floor to Floor Height {m}
  ,                                       !- Space Type Name
  {168349e9-3e51-409b-baf7-5782209fb1ea}, !- Default Construction Set Name
  {aad9720e-ce46-46cc-9aae-a33cbfdfed6b}, !- Default Schedule Set Name
  ,                                       !- Standards Number of Stories
  ,                                       !- Standards Number of Above Ground Stories
  ,                                       !- Standards Template
  Warehouse;                              !- Standards Building Type

OS:AdditionalProperties,
  {8574380d-25ab-407e-8959-b704fb704092}, !- Handle
  {1b28c290-1ba4-4785-a12e-a2c234e6f91a}, !- Object Name
  grid_region,                            !- Feature Name 1
  String,                                 !- Feature Data Type 1
  SRSOc,                                  !- Feature Value 1
  hvac_system_type,                       !- Feature Name 2
  String,                                 !- Feature Data Type 2
  PVAV with gas boiler reheat,            !- Feature Value 2
  wall_as_constructed_template,           !- Feature Name 3
  String,                                 !- Feature Data Type 3
  ComStock DOE Ref 1980-2004,             !- Feature Value 3
  wall_template,                          !- Feature Name 4
  String,                                 !- Feature Data Type 4
  ComStock DOE Ref 1980-2004,             !- Feature Value 4
  roof_as_constructed_template,           !- Feature Name 5
  String,                                 !- Feature Data Type 5
  ComStock DOE Ref 1980-2004,             !- Feature Value 5
  roof_template,                          !- Feature Name 6
  String,                                 !- Feature Data Type 6
  ComStock DOE Ref 1980-2004,             !- Feature Value 6
  exterior_lighting_as_constructed_template, !- Feature Name 7
  String,                                 !- Feature Data Type 7
  ComStock DOE Ref 1980-2004,             !- Feature Value 7
  exterior_lighting_template,             !- Feature Name 8
  String,                                 !- Feature Data Type 8
  ComStock DOE Ref 1980-2004,             !- Feature Value 8
  interior_equipment_as_constructed_template, !- Feature Name 9
  String,                                 !- Feature Data Type 9
  ComStock DOE Ref 1980-2004,             !- Feature Value 9
  interior_equipment_template,            !- Feature Name 10
  String,                                 !- Feature Data Type 10
  ComStock 90.1-2007,                     !- Feature Value 10
  service_water_heating_as_constructed_template, !- Feature Name 11
  String,                                 !- Feature Data Type 11
  ComStock DOE Ref 1980-2004,             !- Feature Value 11
  service_water_heating_template,         !- Feature Name 12
  String,                                 !- Feature Data Type 12
  ComStock DOE Ref 1980-2004,             !- Feature Value 12
  hvac_as_constructed_template,           !- Feature Name 13
  String,                                 !- Feature Data Type 13
  ComStock DOE Ref 1980-2004,             !- Feature Value 13
  hvac_template,                          !- Feature Name 14
  String,                                 !- Feature Data Type 14
  ComStock DOE Ref 1980-2004;             !- Feature Value 14

OS:SpaceType,
  {502fcc87-99c8-4fde-9d11-660c81e82b72}, !- Handle
  Warehouse Office - ComStock DOE Ref 1980-2004, !- Name
  ,                                       !- Default Construction Set Name
  {b6a70bc8-f959-4929-a4cb-b597fb372e8e}, !- Default Schedule Set Name
  {9761bc58-1b23-42a9-9190-458c6cfaac0d}, !- Group Rendering Name
  {eb7e635e-ee61-4c95-a8af-b94c216766e0}, !- Design Specification Outdoor Air Object Name
  ,                                       !- Standards Template
  Warehouse,                              !- Standards Building Type
  Office;                                 !- Standards Space Type

OS:Rendering:Color,
  {9761bc58-1b23-42a9-9190-458c6cfaac0d}, !- Handle
  Warehouse Office,                       !- Name
  120,                                    !- Rendering Red Value
  230,                                    !- Rendering Green Value
  199;                                    !- Rendering Blue Value

OS:SpaceType,
  {e7a67b36-0339-46a1-beea-6f284f7aef3c}, !- Handle
  Warehouse Fine - ComStock DOE Ref 1980-2004, !- Name
  ,                                       !- Default Construction Set Name
  {7b1ef827-aaa8-411c-9a2a-998f8293282e}, !- Default Schedule Set Name
  {f437ebb4-41c1-49d5-a0a0-aa45da35d21c}, !- Group Rendering Name
  {1e83f12a-aece-402a-89c6-3a28748d2558}, !- Design Specification Outdoor Air Object Name
  ,                                       !- Standards Template
  Warehouse,                              !- Standards Building Type
  Fine;                                   !- Standards Space Type

OS:Rendering:Color,
  {f437ebb4-41c1-49d5-a0a0-aa45da35d21c}, !- Handle
  Warehouse Fine,                         !- Name
  120,                                    !- Rendering Red Value
  149,                                    !- Rendering Green Value
  230;                                    !- Rendering Blue Value

OS:SpaceType,
  {b28519a0-d3cc-422a-996d-b56130c46c26}, !- Handle
  Warehouse Bulk - ComStock DOE Ref 1980-2004, !- Name
  ,                                       !- Default Construction Set Name
  {4d8fa2a6-b4e7-44f1-93a7-84bedb7090d0}, !- Default Schedule Set Name
  {26bbf730-c740-4038-beb1-0797e9f2f378}, !- Group Rendering Name
  {623b7b39-fdbe-42c9-a37e-b67db17019d9}, !- Design Specification Outdoor Air Object Name
  ,                                       !- Standards Template
  Warehouse,                              !- Standards Building Type
  Bulk;                                   !- Standards Space Type

OS:Rendering:Color,
  {26bbf730-c740-4038-beb1-0797e9f2f378}, !- Handle
  Warehouse Bulk,                         !- Name
  41,                                     !- Rendering Red Value
  31,                                     !- Rendering Green Value
  169;                                    !- Rendering Blue Value

OS:BuildingStory,
  {811b500e-eb5f-4b41-95d6-0afec258d34d}, !- Handle
  Story Ground,                           !- Name
  0,                                      !- Nominal Z Coordinate {m}
  8.5344,                                 !- Nominal Floor to Floor Height {m}
  ,                                       !- Default Construction Set Name
  ,                                       !- Default Schedule Set Name
  ;                                       !- Group Rendering Name

OS:Space,
  {812f24cc-4cbf-44ad-ab9c-3de5f1b7baf5}, !- Handle
  Warehouse Bulk A end_a - Story Ground,  !- Name
  {b28519a0-d3cc-422a-996d-b56130c46c26}, !- Space Type Name
  ,                                       !- Default Construction Set Name
  ,                                       !- Default Schedule Set Name
  -0,                                     !- Direction of Relative North {deg}
  -8.14021457211049,                      !- X Origin {m}
  -8.14021457211049,                      !- Y Origin {m}
  0,                                      !- Z Origin {m}
  {811b500e-eb5f-4b41-95d6-0afec258d34d}, !- Building Story Name
  {296b1185-2528-43b0-80bd-3b7127c1b5ca}; !- Thermal Zone Name

OS:Surface,
  {bbe4e6be-afe1-447d-86cd-82e394c6c0b7}, !- Handle
  Surface 1,                              !- Name
  Floor,                                  !- Surface Type
  {8e382129-813f-4eed-a328-de310fae5f85}, !- Construction Name
  {812f24cc-4cbf-44ad-ab9c-3de5f1b7baf5}, !- Space Name
  GroundFCfactorMethod,                   !- Outside Boundary Condition
  ,                                       !- Outside Boundary Condition Object
  NoSun,                                  !- Sun Exposure
  NoWind,                                 !- Wind Exposure
  ,                                       !- View Factor to Ground
  ,                                       !- Number of Vertices
  1.77635683940025e-15, 1.77635683940025e-15, 0, !- X,Y,Z Vertex 1 {m}
  1.77635683940025e-15, 4.572, 0,         !- X,Y,Z Vertex 2 {m}
  4.572, 4.572, 0,                        !- X,Y,Z Vertex 3 {m}
  4.572, 1.77635683940025e-15, 0;         !- X,Y,Z Vertex 4 {m}

OS:Surface,
  {6f23dedb-2955-4b1f-8db2-13e0f57f0cb7}, !- Handle
  Surface 2,                              !- Name
  Wall,                                   !- Surface Type
  ,                                       !- Construction Name
  {812f24cc-4cbf-44ad-ab9c-3de5f1b7baf5}, !- Space Name
  Outdoors,                               !- Outside Boundary Condition
  ,                                       !- Outside Boundary Condition Object
  SunExposed,                             !- Sun Exposure
  WindExposed,                            !- Wind Exposure
  ,                                       !- View Factor to Ground
  ,                                       !- Number of Vertices
  1.77635683940025e-15, 4.572, 8.5344,    !- X,Y,Z Vertex 1 {m}
  1.77635683940025e-15, 4.572, 0,         !- X,Y,Z Vertex 2 {m}
  1.77635683940025e-15, 1.77635683940025e-15, 0, !- X,Y,Z Vertex 3 {m}
  1.77635683940025e-15, 1.77635683940025e-15, 8.5344; !- X,Y,Z Vertex 4 {m}

OS:Surface,
  {e0cd8545-ed5b-460b-915b-aab2b733ef97}, !- Handle
  Surface 3,                              !- Name
  Wall,                                   !- Surface Type
  ,                                       !- Construction Name
  {812f24cc-4cbf-44ad-ab9c-3de5f1b7baf5}, !- Space Name
  Surface,                                !- Outside Boundary Condition
  {50c58de2-faca-4222-89dd-d8df26d7bff2}, !- Outside Boundary Condition Object
  NoSun,                                  !- Sun Exposure
  NoWind,                                 !- Wind Exposure
  ,                                       !- View Factor to Ground
  ,                                       !- Number of Vertices
  4.572, 4.572, 8.5344,                   !- X,Y,Z Vertex 1 {m}
  4.572, 4.572, 0,                        !- X,Y,Z Vertex 2 {m}
  1.77635683940025e-15, 4.572, 0,         !- X,Y,Z Vertex 3 {m}
  1.77635683940025e-15, 4.572, 8.5344;    !- X,Y,Z Vertex 4 {m}

OS:Surface,
  {56cae8d9-a715-440d-8822-e0201ab9ffda}, !- Handle
  Surface 4,                              !- Name
  Wall,                                   !- Surface Type
  ,                                       !- Construction Name
  {812f24cc-4cbf-44ad-ab9c-3de5f1b7baf5}, !- Space Name
  Surface,                                !- Outside Boundary Condition
  {9732a88f-7e37-4085-bdfc-f834f591baf8}, !- Outside Boundary Condition Object
  NoSun,                                  !- Sun Exposure
  NoWind,                                 !- Wind Exposure
  ,                                       !- View Factor to Ground
  ,                                       !- Number of Vertices
  4.572, 1.77635683940025e-15, 8.5344,    !- X,Y,Z Vertex 1 {m}
  4.572, 1.77635683940025e-15, 0,         !- X,Y,Z Vertex 2 {m}
  4.572, 4.572, 0,                        !- X,Y,Z Vertex 3 {m}
  4.572, 4.572, 8.5344;                   !- X,Y,Z Vertex 4 {m}

OS:Surface,
  {86347a58-12ee-4d15-b9b5-88f504a0a209}, !- Handle
  Surface 5,                              !- Name
  Wall,                                   !- Surface Type
  ,                                       !- Construction Name
  {812f24cc-4cbf-44ad-ab9c-3de5f1b7baf5}, !- Space Name
  Outdoors,                               !- Outside Boundary Condition
  ,                                       !- Outside Boundary Condition Object
  SunExposed,                             !- Sun Exposure
  WindExposed,                            !- Wind Exposure
  ,                                       !- View Factor to Ground
  ,                                       !- Number of Vertices
  1.77635683940025e-15, 1.77635683940025e-15, 8.5344, !- X,Y,Z Vertex 1 {m}
  1.77635683940025e-15, 1.77635683940025e-15, 0, !- X,Y,Z Vertex 2 {m}
  4.572, 1.77635683940025e-15, 0,         !- X,Y,Z Vertex 3 {m}
  4.572, 1.77635683940025e-15, 8.5344;    !- X,Y,Z Vertex 4 {m}

OS:Surface,
  {1be0ebd3-da73-4064-a3e7-735e0d0d5974}, !- Handle
  Surface 6,                              !- Name
  RoofCeiling,                            !- Surface Type
  ,                                       !- Construction Name
  {812f24cc-4cbf-44ad-ab9c-3de5f1b7baf5}, !- Space Name
  Outdoors,                               !- Outside Boundary Condition
  ,                                       !- Outside Boundary Condition Object
  SunExposed,                             !- Sun Exposure
  WindExposed,                            !- Wind Exposure
  ,                                       !- View Factor to Ground
  ,                                       !- Number of Vertices
  4.572, 1.77635683940025e-15, 8.5344,    !- X,Y,Z Vertex 1 {m}
  4.572, 4.572, 8.5344,                   !- X,Y,Z Vertex 2 {m}
  1.77635683940025e-15, 4.572, 8.5344,    !- X,Y,Z Vertex 3 {m}
  1.77635683940025e-15, 1.77635683940025e-15, 8.5344; !- X,Y,Z Vertex 4 {m}

OS:ThermalZone,
  {296b1185-2528-43b0-80bd-3b7127c1b5ca}, !- Handle
  Zone Warehouse Bulk A end_a - Story Ground, !- Name
  1,                                      !- Multiplier
  ,                                       !- Ceiling Height {m}
  ,                                       !- Volume {m3}
  ,                                       !- Floor Area {m2}
  ,                                       !- Zone Inside Convection Algorithm
  ,                                       !- Zone Outside Convection Algorithm
  ,                                       !- Zone Conditioning Equipment List Name
  {cc7c4efa-e89f-4ee4-ae9c-776af72eb589}, !- Zone Air Inlet Port List
  {0d4ae4b6-e2d8-4a5e-8d9b-9133be647183}, !- Zone Air Exhaust Port List
  {25b814f5-97d5-4d4a-af3d-2357b81e805f}, !- Zone Air Node Name
  {7c4dd472-68c4-4132-976a-77e730dc6a3e}, !- Zone Return Air Port List
  ,                                       !- Primary Daylighting Control Name
  ,                                       !- Fraction of Zone Controlled by Primary Daylighting Control
  ,                                       !- Secondary Daylighting Control Name
  ,                                       !- Fraction of Zone Controlled by Secondary Daylighting Control
  ,                                       !- Illuminance Map Name
  ,                                       !- Group Rendering Name
  {ca2f6c5a-188c-4154-85c2-95663852f0cc}, !- Thermostat Name
  No;                                     !- Use Ideal Air Loads

OS:Node,
  {96a3336d-fcca-4e58-b3f9-c272806f07dc}, !- Handle
  Zone Warehouse Bulk A end_a - Story Ground Zone Air Node, !- Name
  {25b814f5-97d5-4d4a-af3d-2357b81e805f}, !- Inlet Port
  ;                                       !- Outlet Port

OS:Connection,
  {25b814f5-97d5-4d4a-af3d-2357b81e805f}, !- Handle
  {296b1185-2528-43b0-80bd-3b7127c1b5ca}, !- Source Object
  11,                                     !- Outlet Port
  {96a3336d-fcca-4e58-b3f9-c272806f07dc}, !- Target Object
  2;                                      !- Inlet Port

OS:PortList,
  {cc7c4efa-e89f-4ee4-ae9c-776af72eb589}, !- Handle
  {296b1185-2528-43b0-80bd-3b7127c1b5ca}, !- HVAC Component
  {a57994de-6076-42ae-9d72-3e799c07eca8}; !- Port 1

OS:PortList,
  {0d4ae4b6-e2d8-4a5e-8d9b-9133be647183}, !- Handle
  {296b1185-2528-43b0-80bd-3b7127c1b5ca}; !- HVAC Component

OS:PortList,
  {7c4dd472-68c4-4132-976a-77e730dc6a3e}, !- Handle
  {296b1185-2528-43b0-80bd-3b7127c1b5ca}, !- HVAC Component
  {c7ec1ced-f25f-4036-ab63-aed12a2ba1aa}; !- Port 1

OS:Sizing:Zone,
  {dd9ed1c0-0229-4872-9112-3b2148d2960a}, !- Handle
  {296b1185-2528-43b0-80bd-3b7127c1b5ca}, !- Zone or ZoneList Name
  SupplyAirTemperature,                   !- Zone Cooling Design Supply Air Temperature Input Method
  12.7777777777778,                       !- Zone Cooling Design Supply Air Temperature {C}
  11.11,                                  !- Zone Cooling Design Supply Air Temperature Difference {deltaC}
  SupplyAirTemperature,                   !- Zone Heating Design Supply Air Temperature Input Method
  50.0000000000001,                       !- Zone Heating Design Supply Air Temperature {C}
  11.11,                                  !- Zone Heating Design Supply Air Temperature Difference {deltaC}
  0.0085,                                 !- Zone Cooling Design Supply Air Humidity Ratio {kg-H2O/kg-air}
  0.008,                                  !- Zone Heating Design Supply Air Humidity Ratio {kg-H2O/kg-air}
  ,                                       !- Zone Heating Sizing Factor
  ,                                       !- Zone Cooling Sizing Factor
  DesignDay,                              !- Cooling Design Air Flow Method
  ,                                       !- Cooling Design Air Flow Rate {m3/s}
  ,                                       !- Cooling Minimum Air Flow per Zone Floor Area {m3/s-m2}
  ,                                       !- Cooling Minimum Air Flow {m3/s}
  ,                                       !- Cooling Minimum Air Flow Fraction
  DesignDay,                              !- Heating Design Air Flow Method
  ,                                       !- Heating Design Air Flow Rate {m3/s}
  ,                                       !- Heating Maximum Air Flow per Zone Floor Area {m3/s-m2}
  ,                                       !- Heating Maximum Air Flow {m3/s}
  ,                                       !- Heating Maximum Air Flow Fraction
  No,                                     !- Account for Dedicated Outdoor Air System
  NeutralSupplyAir,                       !- Dedicated Outdoor Air System Control Strategy
  autosize,                               !- Dedicated Outdoor Air Low Setpoint Temperature for Design {C}
  autosize,                               !- Dedicated Outdoor Air High Setpoint Temperature for Design {C}
  Sensible Load Only No Latent Load,      !- Zone Load Sizing Method
  HumidityRatioDifference,                !- Zone Latent Cooling Design Supply Air Humidity Ratio Input Method
  ,                                       !- Zone Dehumidification Design Supply Air Humidity Ratio {kgWater/kgDryAir}
  0.005,                                  !- Zone Cooling Design Supply Air Humidity Ratio Difference {kgWater/kgDryAir}
  HumidityRatioDifference,                !- Zone Latent Heating Design Supply Air Humidity Ratio Input Method
  ,                                       !- Zone Humidification Design Supply Air Humidity Ratio {kgWater/kgDryAir}
  0.005,                                  !- Zone Humidification Design Supply Air Humidity Ratio Difference {kgWater/kgDryAir}
  ,                                       !- Zone Humidistat Dehumidification Set Point Schedule Name
  ,                                       !- Zone Humidistat Humidification Set Point Schedule Name
  ,                                       !- Design Zone Air Distribution Effectiveness in Cooling Mode
  ,                                       !- Design Zone Air Distribution Effectiveness in Heating Mode
  ,                                       !- Design Zone Secondary Recirculation Fraction {dimensionless}
  0;                                      !- Design Minimum Zone Ventilation Efficiency {dimensionless}

OS:ZoneHVAC:EquipmentList,
  {c8cb1601-2195-4735-a9f3-b5d47ba0b725}, !- Handle
  Zone Warehouse Bulk A end_a - Story Ground Zone HVAC Equipment List, !- Name
  {296b1185-2528-43b0-80bd-3b7127c1b5ca}, !- Thermal Zone
  ,                                       !- Load Distribution Scheme
  {8281713a-a548-4a24-a3a4-5d833b691220}, !- Zone Equipment 1
  1,                                      !- Zone Equipment Cooling Sequence 1
  1,                                      !- Zone Equipment Heating or No-Load Sequence 1
  ,                                       !- Zone Equipment Sequential Cooling Fraction Schedule Name 1
  ;                                       !- Zone Equipment Sequential Heating Fraction Schedule Name 1

OS:Space,
  {a7b8efb4-e149-4e5b-8243-dd9f680d5804}, !- Handle
  Warehouse Bulk B end_a - Story Ground,  !- Name
  {b28519a0-d3cc-422a-996d-b56130c46c26}, !- Space Type Name
  ,                                       !- Default Construction Set Name
  ,                                       !- Default Schedule Set Name
  -0,                                     !- Direction of Relative North {deg}
  -8.14021457211049,                      !- X Origin {m}
  -3.56821457211049,                      !- Y Origin {m}
  0,                                      !- Z Origin {m}
  {811b500e-eb5f-4b41-95d6-0afec258d34d}, !- Building Story Name
  {b205e350-de30-4410-a386-fe6d5b1e9916}; !- Thermal Zone Name

OS:Surface,
  {d378f697-70d9-47db-92a8-cf6c7de17ddb}, !- Handle
  Surface 7,                              !- Name
  Floor,                                  !- Surface Type
  {2944d1c2-8847-4ed9-8bee-7495392af707}, !- Construction Name
  {a7b8efb4-e149-4e5b-8243-dd9f680d5804}, !- Space Name
  GroundFCfactorMethod,                   !- Outside Boundary Condition
  ,                                       !- Outside Boundary Condition Object
  NoSun,                                  !- Sun Exposure
  NoWind,                                 !- Wind Exposure
  ,                                       !- View Factor to Ground
  ,                                       !- Number of Vertices
  1.77635683940025e-15, 2.66453525910038e-15, 0, !- X,Y,Z Vertex 1 {m}
  1.77635683940025e-15, 7.13642914422098, 0, !- X,Y,Z Vertex 2 {m}
  4.572, 7.13642914422098, 0,             !- X,Y,Z Vertex 3 {m}
  4.572, 2.66453525910038e-15, 0;         !- X,Y,Z Vertex 4 {m}

OS:Surface,
  {1ba13f49-d72b-4212-bfb3-6738590cde8e}, !- Handle
  Surface 8,                              !- Name
  Wall,                                   !- Surface Type
  ,                                       !- Construction Name
  {a7b8efb4-e149-4e5b-8243-dd9f680d5804}, !- Space Name
  Outdoors,                               !- Outside Boundary Condition
  ,                                       !- Outside Boundary Condition Object
  SunExposed,                             !- Sun Exposure
  WindExposed,                            !- Wind Exposure
  ,                                       !- View Factor to Ground
  ,                                       !- Number of Vertices
  1.77635683940025e-15, 7.13642914422098, 8.5344, !- X,Y,Z Vertex 1 {m}
  1.77635683940025e-15, 7.13642914422098, 0, !- X,Y,Z Vertex 2 {m}
  1.77635683940025e-15, 2.66453525910038e-15, 0, !- X,Y,Z Vertex 3 {m}
  1.77635683940025e-15, 2.66453525910038e-15, 8.5344; !- X,Y,Z Vertex 4 {m}

OS:Surface,
  {5701470c-5886-48b0-b484-564f8fa932bd}, !- Handle
  Surface 9,                              !- Name
  Wall,                                   !- Surface Type
  ,                                       !- Construction Name
  {a7b8efb4-e149-4e5b-8243-dd9f680d5804}, !- Space Name
  Surface,                                !- Outside Boundary Condition
  {a905b5fb-f38d-4971-8fee-9ebf0bc8d21b}, !- Outside Boundary Condition Object
  NoSun,                                  !- Sun Exposure
  NoWind,                                 !- Wind Exposure
  ,                                       !- View Factor to Ground
  ,                                       !- Number of Vertices
  4.572, 7.13642914422098, 8.5344,        !- X,Y,Z Vertex 1 {m}
  4.572, 7.13642914422098, 0,             !- X,Y,Z Vertex 2 {m}
  1.77635683940025e-15, 7.13642914422098, 0, !- X,Y,Z Vertex 3 {m}
  1.77635683940025e-15, 7.13642914422098, 8.5344; !- X,Y,Z Vertex 4 {m}

OS:Surface,
  {d851eea4-b3f8-49fd-88c9-8c81f11ee4d1}, !- Handle
  Surface 10,                             !- Name
  Wall,                                   !- Surface Type
  ,                                       !- Construction Name