
OS:Version,
  {4ed16e09-af41-445c-bcc9-dac3231f823d}, !- Handle
  2.6.0;                                  !- Version Identifier

OS:BuildingStory,
  {894bb8f7-2151-41d1-965c-faa49d46df31}, !- Handle
  EL1 Ground Flr,                         !- Name
  ,                                       !- Nominal Z Coordinate {m}
  ,                                       !- Nominal Floor to Floor Height {m}
  ,                                       !- Default Construction Set Name
  ,                                       !- Default Schedule Set Name
  ;                                       !- Group Rendering Name

OS:BuildingStory,
  {6b849951-a688-469a-a502-b61ebc6ff81c}, !- Handle
  EL1 Mid Flr,                            !- Name
  ,                                       !- Nominal Z Coordinate {m}
  ,                                       !- Nominal Floor to Floor Height {m}
  ,                                       !- Default Construction Set Name
  ,                                       !- Default Schedule Set Name
  ;                                       !- Group Rendering Name

OS:BuildingStory,
  {3088c5a7-0cb0-470d-8290-65d50f58382d}, !- Handle
  EL1 Top Flr,                            !- Name
  ,                                       !- Nominal Z Coordinate {m}
  ,                                       !- Nominal Floor to Floor Height {m}
  ,                                       !- Default Construction Set Name
  ,                                       !- Default Schedule Set Name
  ;                                       !- Group Rendering Name

OS:Space,
  {1835c805-e39e-4eb3-8d6c-ab276e9de880}, !- Handle
  EL1 South Perim Spc (G.S1),             !- Name
  {edc7845b-db61-4299-9c5f-072fced64929}, !- Space Type Name
  ,                                       !- Default Construction Set Name
  ,                                       !- Default Schedule Set Name
  -0,                                     !- Direction of Relative North {deg}
  0,                                      !- X Origin {m}
  0,                                      !- Y Origin {m}
  0,                                      !- Z Origin {m}
  {894bb8f7-2151-41d1-965c-faa49d46df31}, !- Building Story Name
  {b6db24c6-c454-429f-a2b4-7bce6c6c4ed6}; !- Thermal Zone Name

OS:Space,
  {ffa591d5-70bf-40a8-8e05-cbfbae3656dc}, !- Handle
  EL1 East Perim Spc (G.E2),              !- Name
  {edc7845b-db61-4299-9c5f-072fced64929}, !- Space Type Name
  ,                                       !- Default Construction Set Name
  ,                                       !- Default Schedule Set Name
  -0,                                     !- Direction of Relative North {deg}
  0,                                      !- X Origin {m}
  0,                                      !- Y Origin {m}
  0,                                      !- Z Origin {m}
  {894bb8f7-2151-41d1-965c-faa49d46df31}, !- Building Story Name
  {07fb6838-a883-484c-9540-455c4a8723d3}; !- Thermal Zone Name

OS:Space,
  {d912e99c-d194-43b7-9604-ab3695362587}, !- Handle
  EL1 North Perim Spc (G.N3),             !- Name
  {edc7845b-db61-4299-9c5f-072fced64929}, !- Space Type Name
  ,                                       !- Default Construction Set Name
  ,                                       !- Default Schedule Set Name
  -0,                                     !- Direction of Relative North {deg}
  0,                                      !- X Origin {m}
  0,                                      !- Y Origin {m}
  0,                                      !- Z Origin {m}
  {894bb8f7-2151-41d1-965c-faa49d46df31}, !- Building Story Name
  {6e010cd8-38ec-4659-8efa-0bcc3d31cc12}; !- Thermal Zone Name

OS:Space,
  {0974b56c-074d-4d86-9e83-1007ebc5731f}, !- Handle
  EL1 West Perim Spc (G.W4),              !- Name
  {edc7845b-db61-4299-9c5f-072fced64929}, !- Space Type Name
  ,                                       !- Default Construction Set Name
  ,                                       !- Default Schedule Set Name
  -0,                                     !- Direction of Relative North {deg}
  0,                                      !- X Origin {m}
  0,                                      !- Y Origin {m}
  0,                                      !- Z Origin {m}
  {894bb8f7-2151-41d1-965c-faa49d46df31}, !- Building Story Name
  {accd11b1-7b91-4c03-ae31-42bdddcc9812}; !- Thermal Zone Name

OS:Space,
  {ce0a00aa-81bb-4be7-becf-9c05cd9be778}, !- Handle
  EL1 Core Spc (G.C5),                    !- Name
  {edc7845b-db61-4299-9c5f-072fced64929}, !- Space Type Name
  ,                                       !- Default Construction Set Name
  ,                                       !- Default Schedule Set Name
  -0,                                     !- Direction of Relative North {deg}
  0,                                      !- X Origin {m}
  0,                                      !- Y Origin {m}
  0,                                      !- Z Origin {m}
  {894bb8f7-2151-41d1-965c-faa49d46df31}, !- Building Story Name
  {4c08bed5-9967-4392-a7cb-1d25d0403e69}; !- Thermal Zone Name

OS:Space,
  {9d6003c9-00c8-49a0-a68f-14597c56f033}, !- Handle
  EL1 South Perim Plnm (G.S6),            !- Name
  {1a91b618-2ff0-4fae-8902-4823c06a7fda}, !- Space Type Name
  ,                                       !- Default Construction Set Name
  ,                                       !- Default Schedule Set Name
  -0,                                     !- Direction of Relative North {deg}
  0,                                      !- X Origin {m}
  0,                                      !- Y Origin {m}
  0,                                      !- Z Origin {m}
  {894bb8f7-2151-41d1-965c-faa49d46df31}, !- Building Story Name
  {60ba7763-599a-4369-99f7-ccfa03bc0154}, !- Thermal Zone Name
  No;                                     !- Part of Total Floor Area

OS:Space,
  {e9990efc-f198-497f-92a6-f3400e92cd16}, !- Handle
  EL1 East Perim Plnm (G.E7),             !- Name
  {1a91b618-2ff0-4fae-8902-4823c06a7fda}, !- Space Type Name
  ,                                       !- Default Construction Set Name
  ,                                       !- Default Schedule Set Name
  -0,                                     !- Direction of Relative North {deg}
  0,                                      !- X Origin {m}
  0,                                      !- Y Origin {m}
  0,                                      !- Z Origin {m}
  {894bb8f7-2151-41d1-965c-faa49d46df31}, !- Building Story Name
  {a9b8493d-9b8b-4508-aebe-0ddbf22eef23}, !- Thermal Zone Name
  No;                                     !- Part of Total Floor Area

OS:Space,
  {b6a02560-ad8d-4ed9-a730-f7e794e2af14}, !- Handle
  EL1 North Perim Plnm (G.N8),            !- Name
  {1a91b618-2ff0-4fae-8902-4823c06a7fda}, !- Space Type Name
  ,                                       !- Default Construction Set Name
  ,                                       !- Default Schedule Set Name
  -0,                                     !- Direction of Relative North {deg}
  0,                                      !- X Origin {m}
  0,                                      !- Y Origin {m}
  0,                                      !- Z Origin {m}
  {894bb8f7-2151-41d1-965c-faa49d46df31}, !- Building Story Name
  {2223bae5-0737-46fd-87a8-7d83c47e4ed0}, !- Thermal Zone Name
  No;                                     !- Part of Total Floor Area

OS:Space,
  {898a69c0-bbd6-4fad-9c5f-a8198a66845c}, !- Handle
  EL1 West Perim Plnm (G.W9),             !- Name
  {1a91b618-2ff0-4fae-8902-4823c06a7fda}, !- Space Type Name
  ,                                       !- Default Construction Set Name
  ,                                       !- Default Schedule Set Name
  -0,                                     !- Direction of Relative North {deg}
  0,                                      !- X Origin {m}
  0,                                      !- Y Origin {m}
  0,                                      !- Z Origin {m}
  {894bb8f7-2151-41d1-965c-faa49d46df31}, !- Building Story Name
  {6f35877e-2a34-4fb5-afaa-3d2aa4e84608}, !- Thermal Zone Name
  No;                                     !- Part of Total Floor Area

OS:Space,
  {5c6f56ed-4599-485f-bb24-160bad5c4b74}, !- Handle
  EL1 Core Plnm (G.C10),                  !- Name
  {1a91b618-2ff0-4fae-8902-4823c06a7fda}, !- Space Type Name
  ,                                       !- Default Construction Set Name
  ,                                       !- Default Schedule Set Name
  -0,                                     !- Direction of Relative North {deg}
  0,                                      !- X Origin {m}
  0,                                      !- Y Origin {m}
  0,                                      !- Z Origin {m}
  {894bb8f7-2151-41d1-965c-faa49d46df31}, !- Building Story Name
  {4dd63111-e174-44ff-af36-77543987cc90}, !- Thermal Zone Name
  No;                                     !- Part of Total Floor Area

OS:Space,
  {1db3fd28-ab17-46aa-b392-a73b9d777b4c}, !- Handle
  EL1 South Perim Spc (M.S11),            !- Name
  {edc7845b-db61-4299-9c5f-072fced64929}, !- Space Type Name
  ,                                       !- Default Construction Set Name
  ,                                       !- Default Schedule Set Name
  -0,                                     !- Direction of Relative North {deg}
  0,                                      !- X Origin {m}
  0,                                      !- Y Origin {m}
  0,                                      !- Z Origin {m}
  {6b849951-a688-469a-a502-b61ebc6ff81c}, !- Building Story Name
  {1af03aea-7442-4534-a314-225b60372de8}; !- Thermal Zone Name

OS:Space,
  {ada543e6-2496-4ca0-87ba-ebde38f6458d}, !- Handle
  EL1 East Perim Spc (M.E12),             !- Name
  {edc7845b-db61-4299-9c5f-072fced64929}, !- Space Type Name
  ,                                       !- Default Construction Set Name
  ,                                       !- Default Schedule Set Name
  -0,                                     !- Direction of Relative North {deg}
  0,                                      !- X Origin {m}
  0,                                      !- Y Origin {m}
  0,                                      !- Z Origin {m}
  {6b849951-a688-469a-a502-b61ebc6ff81c}, !- Building Story Name
  {3a43297e-d922-4925-9652-1046bb5c4710}; !- Thermal Zone Name

OS:Space,
  {8b3256a6-816a-4c3a-80fe-286e16ca4b19}, !- Handle
  EL1 North Perim Spc (M.N13),            !- Name
  {edc7845b-db61-4299-9c5f-072fced64929}, !- Space Type Name
  ,                                       !- Default Construction Set Name
  ,                                       !- Default Schedule Set Name
  -0,                                     !- Direction of Relative North {deg}
  0,                                      !- X Origin {m}
  0,                                      !- Y Origin {m}
  0,                                      !- Z Origin {m}
  {6b849951-a688-469a-a502-b61ebc6ff81c}, !- Building Story Name
  {008f24c3-937c-47f6-b373-c159dedb9c6f}; !- Thermal Zone Name

OS:Space,
  {b766c9a6-bc80-428d-bc0f-0124596f0297}, !- Handle
  EL1 West Perim Spc (M.W14),             !- Name
  {edc7845b-db61-4299-9c5f-072fced64929}, !- Space Type Name
  ,                                       !- Default Construction Set Name
  ,                                       !- Default Schedule Set Name
  -0,                                     !- Direction of Relative North {deg}
  0,                                      !- X Origin {m}
  0,                                      !- Y Origin {m}
  0,                                      !- Z Origin {m}
  {6b849951-a688-469a-a502-b61ebc6ff81c}, !- Building Story Name
  {855116fa-9f5c-4986-ac59-d59bccee2a4c}; !- Thermal Zone Name

OS:Space,
  {b56f3ae6-5aec-4164-baaf-a110b268ef5c}, !- Handle
  EL1 Core Spc (M.C15),                   !- Name
  {edc7845b-db61-4299-9c5f-072fced64929}, !- Space Type Name
  ,                                       !- Default Construction Set Name
  ,                                       !- Default Schedule Set Name
  -0,                                     !- Direction of Relative North {deg}
  0,                                      !- X Origin {m}
  0,                                      !- Y Origin {m}
  0,                                      !- Z Origin {m}
  {6b849951-a688-469a-a502-b61ebc6ff81c}, !- Building Story Name
  {a8d72c14-3cc4-4803-9e5a-2f9aa4d4860c}; !- Thermal Zone Name

OS:Space,
  {41d67ce5-0429-445d-8391-46df2e0d7511}, !- Handle
  EL1 South Perim Plnm (M.S16),           !- Name
  {1a91b618-2ff0-4fae-8902-4823c06a7fda}, !- Space Type Name
  ,                                       !- Default Construction Set Name
  ,                                       !- Default Schedule Set Name
  -0,                                     !- Direction of Relative North {deg}
  0,                                      !- X Origin {m}
  0,                                      !- Y Origin {m}
  0,                                      !- Z Origin {m}
  {6b849951-a688-469a-a502-b61ebc6ff81c}, !- Building Story Name
  {d187a564-3c9a-45a3-9cbe-de1713f9cc2c}, !- Thermal Zone Name
  No;                                     !- Part of Total Floor Area

OS:Space,
  {5981a4df-2e5f-4cd8-bddc-0f176282de11}, !- Handle
  EL1 East Perim Plnm (M.E17),            !- Name
  {1a91b618-2ff0-4fae-8902-4823c06a7fda}, !- Space Type Name
  ,                                       !- Default Construction Set Name
  ,                                       !- Default Schedule Set Name
  -0,                                     !- Direction of Relative North {deg}
  0,                                      !- X Origin {m}
  0,                                      !- Y Origin {m}
  0,                                      !- Z Origin {m}
  {6b849951-a688-469a-a502-b61ebc6ff81c}, !- Building Story Name
  {7c777c3d-53f3-4196-a268-cb546c35005c}, !- Thermal Zone Name
  No;                                     !- Part of Total Floor Area

OS:Space,
  {e18314dd-f347-41bf-aee9-643a3bf2c729}, !- Handle
  EL1 North Perim Plnm (M.N18),           !- Name
  {1a91b618-2ff0-4fae-8902-4823c06a7fda}, !- Space Type Name
  ,                                       !- Default Construction Set Name
  ,                                       !- Default Schedule Set Name
  -0,                                     !- Direction of Relative North {deg}
  0,                                      !- X Origin {m}
  0,                                      !- Y Origin {m}
  0,                                      !- Z Origin {m}
  {6b849951-a688-469a-a502-b61ebc6ff81c}, !- Building Story Name
  {713f3a25-e016-433e-8037-bdfb32f3afcd}, !- Thermal Zone Name
  No;                                     !- Part of Total Floor Area

OS:Space,
  {6cb43c3e-fca3-4e16-b017-f87b7e8eddb6}, !- Handle
  EL1 West Perim Plnm (M.W19),            !- Name
  {1a91b618-2ff0-4fae-8902-4823c06a7fda}, !- Space Type Name
  ,                                       !- Default Construction Set Name
  ,                                       !- Default Schedule Set Name
  -0,                                     !- Direction of Relative North {deg}
  0,                                      !- X Origin {m}
  0,                                      !- Y Origin {m}
  0,                                      !- Z Origin {m}
  {6b849951-a688-469a-a502-b61ebc6ff81c}, !- Building Story Name
  {19fe1813-900a-426b-b6a2-8e4f4cbc595e}, !- Thermal Zone Name
  No;                                     !- Part of Total Floor Area

OS:Space,
  {798d28b0-ae9c-419f-972e-489dec375e6a}, !- Handle
  EL1 Core Plnm (M.C20),                  !- Name
  {1a91b618-2ff0-4fae-8902-4823c06a7fda}, !- Space Type Name
  ,                                       !- Default Construction Set Name
  ,                                       !- Default Schedule Set Name
  -0,                                     !- Direction of Relative North {deg}
  0,                                      !- X Origin {m}
  0,                                      !- Y Origin {m}
  0,                                      !- Z Origin {m}
  {6b849951-a688-469a-a502-b61ebc6ff81c}, !- Building Story Name
  {257f925a-6d48-471a-ba17-787271a6937b}, !- Thermal Zone Name
  No;                                     !- Part of Total Floor Area

OS:Space,
  {18755efd-3435-431d-9e61-0076c3c46acd}, !- Handle
  EL1 South Perim Spc (T.S21),            !- Name
  {edc7845b-db61-4299-9c5f-072fced64929}, !- Space Type Name
  ,                                       !- Default Construction Set Name
  ,                                       !- Default Schedule Set Name
  -0,                                     !- Direction of Relative North {deg}
  0,                                      !- X Origin {m}
  0,                                      !- Y Origin {m}
  0,                                      !- Z Origin {m}
  {3088c5a7-0cb0-470d-8290-65d50f58382d}, !- Building Story Name
  {18e6d3f9-99e7-4460-83a8-30819c20fbaf}; !- Thermal Zone Name

OS:Space,
  {763b3865-e989-4206-adeb-66ac2f425f78}, !- Handle
  EL1 East Perim Spc (T.E22),             !- Name
  {edc7845b-db61-4299-9c5f-072fced64929}, !- Space Type Name
  ,                                       !- Default Construction Set Name
  ,                                       !- Default Schedule Set Name
  -0,                                     !- Direction of Relative North {deg}
  0,                                      !- X Origin {m}
  0,                                      !- Y Origin {m}
  0,                                      !- Z Origin {m}
  {3088c5a7-0cb0-470d-8290-65d50f58382d}, !- Building Story Name
  {221769f7-d0f3-4fa0-94a3-9d428e9aa00e}; !- Thermal Zone Name

OS:Space,
  {f384b88b-03fd-4d5d-9b49-1b9ad6307d56}, !- Handle
  EL1 North Perim Spc (T.N23),            !- Name
  {edc7845b-db61-4299-9c5f-072fced64929}, !- Space Type Name
  ,                                       !- Default Construction Set Name
  ,                                       !- Default Schedule Set Name
  -0,                                     !- Direction of Relative North {deg}
  0,                                      !- X Origin {m}
  0,                                      !- Y Origin {m}
  0,                                      !- Z Origin {m}
  {3088c5a7-0cb0-470d-8290-65d50f58382d}, !- Building Story Name
  {9615e8e7-d6f1-4f45-88b7-835cfccdaaa4}; !- Thermal Zone Name

OS:Space,
  {4e37cf80-99f0-4cf4-9102-7b778a2ffa7d}, !- Handle
  EL1 West Perim Spc (T.W24),             !- Name
  {edc7845b-db61-4299-9c5f-072fced64929}, !- Space Type Name
  ,                                       !- Default Construction Set Name
  ,                                       !- Default Schedule Set Name
  -0,                                     !- Direction of Relative North {deg}
  0,                                      !- X Origin {m}
  0,                                      !- Y Origin {m}
  0,                                      !- Z Origin {m}
  {3088c5a7-0cb0-470d-8290-65d50f58382d}, !- Building Story Name
  {9f7daa18-b9b0-4d99-8cbe-c84458c8639f}; !- Thermal Zone Name

OS:Space,
  {859096c0-62cb-4e42-bed7-159bce7859df}, !- Handle
  EL1 Core Spc (T.C25),                   !- Name
  {edc7845b-db61-4299-9c5f-072fced64929}, !- Space Type Name
  ,                                       !- Default Construction Set Name
  ,                                       !- Default Schedule Set Name
  -0,                                     !- Direction of Relative North {deg}
  0,                                      !- X Origin {m}
  0,                                      !- Y Origin {m}
  0,                                      !- Z Origin {m}
  {3088c5a7-0cb0-470d-8290-65d50f58382d}, !- Building Story Name
  {b490614b-709a-4932-afe4-fbcc49ba1eb8}; !- Thermal Zone Name

OS:Space,
  {e7887479-442d-4624-90ff-affecf2fe2b3}, !- Handle
  EL1 South Perim Plnm (T.S26),           !- Name
  {1a91b618-2ff0-4fae-8902-4823c06a7fda}, !- Space Type Name
  ,                                       !- Default Construction Set Name
  ,                                       !- Default Schedule Set Name
  -0,                                     !- Direction of Relative North {deg}
  0,                                      !- X Origin {m}
  0,                                      !- Y Origin {m}
  0,                                      !- Z Origin {m}
  {3088c5a7-0cb0-470d-8290-65d50f58382d}, !- Building Story Name
  {eceb03ef-a016-4b2f-9939-2707eb089cf6}, !- Thermal Zone Name
  No;                                     !- Part of Total Floor Area

OS:Space,
  {1df574b8-0726-4e71-a2ff-07d1c6eff188}, !- Handle
  EL1 East Perim Plnm (T.E27),            !- Name
  {1a91b618-2ff0-4fae-8902-4823c06a7fda}, !- Space Type Name
  ,                                       !- Default Construction Set Name
  ,                                       !- Default Schedule Set Name
  -0,                                     !- Direction of Relative North {deg}
  0,                                      !- X Origin {m}
  0,                                      !- Y Origin {m}
  0,                                      !- Z Origin {m}
  {3088c5a7-0cb0-470d-8290-65d50f58382d}, !- Building Story Name
  {5b46b662-6d50-44eb-8a0a-6536ce34e74e}, !- Thermal Zone Name
  No;                                     !- Part of Total Floor Area

OS:Space,
  {a0e426bc-4437-49a4-906d-6564225cc452}, !- Handle
  EL1 North Perim Plnm (T.N28),           !- Name
  {1a91b618-2ff0-4fae-8902-4823c06a7fda}, !- Space Type Name
  ,                                       !- Default Construction Set Name
  ,                                       !- Default Schedule Set Name
  -0,                                     !- Direction of Relative North {deg}
  0,                                      !- X Origin {m}
  0,                                      !- Y Origin {m}
  0,                                      !- Z Origin {m}
  {3088c5a7-0cb0-470d-8290-65d50f58382d}, !- Building Story Name
  {65cd601c-3cd5-477a-9af0-95da6807e247}, !- Thermal Zone Name
  No;                                     !- Part of Total Floor Area

OS:Space,
  {0082e035-3ee5-4674-9504-5acc82c84609}, !- Handle
  EL1 West Perim Plnm (T.W29),            !- Name
  {1a91b618-2ff0-4fae-8902-4823c06a7fda}, !- Space Type Name
  ,                                       !- Default Construction Set Name
  ,                                       !- Default Schedule Set Name
  -0,                                     !- Direction of Relative North {deg}
  0,                                      !- X Origin {m}
  0,                                      !- Y Origin {m}
  0,                                      !- Z Origin {m}
  {3088c5a7-0cb0-470d-8290-65d50f58382d}, !- Building Story Name
  {e1d62676-eb72-46ca-b0f1-7124727fdddb}, !- Thermal Zone Name
  No;                                     !- Part of Total Floor Area

OS:Space,
  {5192dec0-b307-423c-931a-d3f80171a700}, !- Handle
  EL1 Core Plnm (T.C30),                  !- Name
  {1a91b618-2ff0-4fae-8902-4823c06a7fda}, !- Space Type Name
  ,                                       !- Default Construction Set Name
  ,                                       !- Default Schedule Set Name
  -0,                                     !- Direction of Relative North {deg}
  0,                                      !- X Origin {m}
  0,                                      !- Y Origin {m}
  0,                                      !- Z Origin {m}
  {3088c5a7-0cb0-470d-8290-65d50f58382d}, !- Building Story Name
  {794583aa-cd3d-4099-b6d4-0177f3485453}, !- Thermal Zone Name
  No;                                     !- Part of Total Floor Area

OS:Surface,
  {9447f7e3-e322-4eef-b8a5-404391627b21}, !- Handle
  EL1 South Wall (G.S1.E1),               !- Name
  Wall,                                   !- Surface Type
  ,                                       !- Construction Name
  {1835c805-e39e-4eb3-8d6c-ab276e9de880}, !- Space Name
  Outdoors,                               !- Outside Boundary Condition
  ,                                       !- Outside Boundary Condition Object
  SunExposed,                             !- Sun Exposure
  WindExposed,                            !- Wind Exposure
  ,                                       !- View Factor to Ground
  ,                                       !- Number of Vertices
  0, 0, 0,                                !- X,Y,Z Vertex 1 {m}
  60.96, 0, 0,                            !- X,Y,Z Vertex 2 {m}
  60.96, 0, 4.572,                        !- X,Y,Z Vertex 3 {m}
  0, 0, 4.572;                            !- X,Y,Z Vertex 4 {m}

OS:SubSurface,
  {d37121c5-00c2-421e-a393-0b15da0a1c51}, !- Handle
  EL1 South Win (G.S1.E1.W1),             !- Name
  FixedWindow,                            !- Sub Surface Type
  ,                                       !- Construction Name
  {9447f7e3-e322-4eef-b8a5-404391627b21}, !- Surface Name
  ,                                       !- Outside Boundary Condition Object
  ,                                       !- View Factor to Ground
  ,                                       !- Shading Control Name
  ,                                       !- Frame and Divider Name
  ,                                       !- Multiplier
  ,                                       !- Number of Vertices
  28.44146712, -1.38763098169681e-14, 0.9144, !- X,Y,Z Vertex 1 {m}
  32.51853288, -1.5873496030127e-14, 0.9144, !- X,Y,Z Vertex 2 {m}
  32.51853288, -1.57574083310248e-14, 2.810256, !- X,Y,Z Vertex 3 {m}
  28.44146712, -1.37602221178658e-14, 2.810256; !- X,Y,Z Vertex 4 {m}

OS:Surface,
  {3eaa493b-6813-4ac1-bda8-6bbe055a45c8}, !- Handle
  EL1 NE Wall (G.S1.I1),                  !- Name
  Wall,                                   !- Surface Type
  ,                                       !- Construction Name
  {1835c805-e39e-4eb3-8d6c-ab276e9de880}, !- Space Name
  Surface,                                !- Outside Boundary Condition
  {3f24b1d3-d856-489c-92cc-6742a2aa1073}, !- Outside Boundary Condition Object
  NoSun,                                  !- Sun Exposure
  NoWind,                                 !- Wind Exposure
  ,                                       !- View Factor to Ground
  ,                                       !- Number of Vertices
  60.96, 0, 0,                            !- X,Y,Z Vertex 1 {m}
  56.388, 4.572, 0,                       !- X,Y,Z Vertex 2 {m}
  56.388, 4.572, 4.572,                   !- X,Y,Z Vertex 3 {m}
  60.96, 0, 4.572;                        !- X,Y,Z Vertex 4 {m}

OS:Surface,
  {3f24b1d3-d856-489c-92cc-6742a2aa1073}, !- Handle
  EL1 NE Wall (G.S1.I1)-mirror,           !- Name
  Wall,                                   !- Surface Type
  ,                                       !- Construction Name
  {ffa591d5-70bf-40a8-8e05-cbfbae3656dc}, !- Space Name
  Surface,                                !- Outside Boundary Condition
  {3eaa493b-6813-4ac1-bda8-6bbe055a45c8}, !- Outside Boundary Condition Object
  NoSun,                                  !- Sun Exposure
  NoWind,                                 !- Wind Exposure
  ,                                       !- View Factor to Ground
  ,                                       !- Number of Vertices
  56.388, 4.572, 4.572,                   !- X,Y,Z Vertex 1 {m}
  56.388, 4.572, 0,                       !- X,Y,Z Vertex 2 {m}
  60.96, 0, 0,                            !- X,Y,Z Vertex 3 {m}
  60.96, 0, 4.572;                        !- X,Y,Z Vertex 4 {m}

OS:Surface,
  {8fe5d1a8-b55c-45a0-89e8-603b62c0e0e2}, !- Handle
  EL1 North Wall (G.S1.I2),               !- Name
  Wall,                                   !- Surface Type
  ,                                       !- Construction Name
  {1835c805-e39e-4eb3-8d6c-ab276e9de880}, !- Space Name
  Surface,                                !- Outside Boundary Condition
  {9547bf20-bbfe-4631-aab6-2e8acf258ca9}, !- Outside Boundary Condition Object
  NoSun,                                  !- Sun Exposure
  NoWind,                                 !- Wind Exposure
  ,                                       !- View Factor to Ground
  ,                                       !- Number of Vertices
  56.388, 4.572, 0,                       !- X,Y,Z Vertex 1 {m}
  4.572, 4.572, 0,                        !- X,Y,Z Vertex 2 {m}
  4.572, 4.572, 4.572,                    !- X,Y,Z Vertex 3 {m}
  56.388, 4.572, 4.572;                   !- X,Y,Z Vertex 4 {m}

OS:Surface,
  {9547bf20-bbfe-4631-aab6-2e8acf258ca9}, !- Handle
  EL1 North Wall (G.S1.I2)-mirror,        !- Name
  Wall,                                   !- Surface Type
  ,                                       !- Construction Name
  {ce0a00aa-81bb-4be7-becf-9c05cd9be778}, !- Space Name
  Surface,                                !- Outside Boundary Condition
  {8fe5d1a8-b55c-45a0-89e8-603b62c0e0e2}, !- Outside Boundary Condition Object
  NoSun,                                  !- Sun Exposure
  NoWind,                                 !- Wind Exposure
  ,                                       !- View Factor to Ground
  ,                                       !- Number of Vertices
  4.572, 4.572, 4.572,                    !- X,Y,Z Vertex 1 {m}
  4.572, 4.572, 0,                        !- X,Y,Z Vertex 2 {m}
  56.388, 4.572, 0,                       !- X,Y,Z Vertex 3 {m}
  56.388, 4.572, 4.572;                   !- X,Y,Z Vertex 4 {m}

OS:Surface,
  {720672b7-2024-41c9-8673-8c95ad15a5c6}, !- Handle
  EL1 NW Wall (G.S1.I3),                  !- Name
  Wall,                                   !- Surface Type
  ,                                       !- Construction Name
  {1835c805-e39e-4eb3-8d6c-ab276e9de880}, !- Space Name
  Surface,                                !- Outside Boundary Condition
  {3adfc86b-87ec-41fb-a631-ca1c9c460394}, !- Outside Boundary Condition Object
  NoSun,                                  !- Sun Exposure
  NoWind,                                 !- Wind Exposure
  ,                                       !- View Factor to Ground