
OS:Version,
  {9a5199db-a61c-4d92-8100-dba841b7b566}, !- Handle
  3.8.0;                                  !- Version Identifier

OS:Building,
  {3356aedb-116e-430d-91d1-31f2b67492b4}, !- Handle
  ComStock DOE Ref Pre-1980|SmallOffice,  !- Name
  ,                                       !- Building Sector Type
  ,                                       !- North Axis {deg}
  ,                                       !- Nominal Floor to Floor Height {m}
  ,                                       !- Space Type Name
  {2d4d64c5-7784-4fda-a5f5-513459437905}, !- Default Construction Set Name
  ,                                       !- Default Schedule Set Name
  ,                                       !- Standards Number of Stories
  ,                                       !- Standards Number of Above Ground Stories
  ,                                       !- Standards Template
  Office;                                 !- Standards Building Type

OS:SpaceType,
  {0649d243-6d8b-467e-a0fd-8c349fd62e8f}, !- Handle
  Office WholeBuilding - Sm Office - ComStock DOE Ref Pre-1980, !- Name
  ,                                       !- Default Construction Set Name
  {04cef2ce-93d5-4f35-a407-25029d875bbe}, !- Default Schedule Set Name
  {58ca08ce-fa42-4ef8-934b-114f63a4752d}, !- Group Rendering Name
  {8823fe36-8c2e-4760-a72f-6b1ccabb5a51}, !- Design Specification Outdoor Air Object Name
  ,                                       !- Standards Template
  Office,                                 !- Standards Building Type
  WholeBuilding - Sm Office;              !- Standards Space Type

OS:Rendering:Color,
  {58ca08ce-fa42-4ef8-934b-114f63a4752d}, !- Handle
  Office WholeBuilding - Sm Office,       !- Name
  120,                                    !- Rendering Red Value
  230,                                    !- Rendering Green Value
  199;                                    !- Rendering Blue Value

OS:Site,
  {a189e5d4-347a-41b8-943f-a958c9e61180}, !- Handle
  Fort Collins  Awos_CO_USA,              !- Name
  40.45,                                  !- Latitude {deg}
  -105.02,                                !- Longitude {deg}
  -7,                                     !- Time Zone {hr}
  1529,                                   !- Elevation {m}
  City;                                   !- Terrain

OS:BuildingStory,
  {efc86152-8a53-43e5-9739-ead9bf8b462e}, !- Handle
  Story ground,                           !- Name
  0,                                      !- Nominal Z Coordinate {m}
  3.048,                                  !- Nominal Floor to Floor Height {m}
  ,                                       !- Default Construction Set Name
  ,                                       !- Default Schedule Set Name
  ;                                       !- Group Rendering Name

OS:Space,
  {c11f5d71-ac1c-4b14-bd6c-eda5e056e896}, !- Handle
  Office WholeBuilding - Sm Office  - Story ground, !- Name
  {0649d243-6d8b-467e-a0fd-8c349fd62e8f}, !- Space Type Name
  ,                                       !- Default Construction Set Name
  ,                                       !- Default Schedule Set Name
  -0,                                     !- Direction of Relative North {deg}
  -15.6163529673224,                      !- X Origin {m}
  -5.20545098910748,                      !- Y Origin {m}
  0,                                      !- Z Origin {m}
  {efc86152-8a53-43e5-9739-ead9bf8b462e}, !- Building Story Name
  {5f8deca6-f8f0-46dc-a050-bf52883a1bf1}; !- Thermal Zone Name

OS:Surface,
  {e1a537e0-6058-4d72-9a95-8fbe84a0c297}, !- Handle
  Office WholeBuilding - Sm Office  - Story ground Floor 1, !- Name
  Floor,                                  !- Surface Type
  {13e6c855-3a65-406b-b8da-78b7bc6759d6}, !- Construction Name
  {c11f5d71-ac1c-4b14-bd6c-eda5e056e896}, !- Space Name
  GroundFCfactorMethod,                   !- Outside Boundary Condition
  ,                                       !- Outside Boundary Condition Object
  NoSun,                                  !- Sun Exposure
  NoWind,                                 !- Wind Exposure
  ,                                       !- View Factor to Ground
  ,                                       !- Number of Vertices
  2.8421709430404e-14, -4.44089209850063e-15, 0, !- X,Y,Z Vertex 1 {m}
  2.8421709430404e-14, 10.410901978215, 0, !- X,Y,Z Vertex 2 {m}
  31.2327059346448, 10.410901978215, 0,   !- X,Y,Z Vertex 3 {m}
  31.2327059346448, -4.44089209850063e-15, 0; !- X,Y,Z Vertex 4 {m}

OS:Surface,
  {cca80208-22b4-4dba-84d3-14df0ca3dbdf}, !- Handle
  Office WholeBuilding - Sm Office  - Story ground Wall 3, !- Name
  Wall,                                   !- Surface Type
  ,                                       !- Construction Name
  {c11f5d71-ac1c-4b14-bd6c-eda5e056e896}, !- Space Name
  Outdoors,                               !- Outside Boundary Condition
  ,                                       !- Outside Boundary Condition Object
  SunExposed,                             !- Sun Exposure
  WindExposed,                            !- Wind Exposure
  ,                                       !- View Factor to Ground
  ,                                       !- Number of Vertices
  2.8421709430404e-14, -4.44089209850063e-15, 3.048, !- X,Y,Z Vertex 1 {m}
  2.8421709430404e-14, 10.410901978215, 3.048, !- X,Y,Z Vertex 2 {m}
  2.8421709430404e-14, 10.410901978215, 0, !- X,Y,Z Vertex 3 {m}
  2.8421709430404e-14, -4.44089209850063e-15, 0; !- X,Y,Z Vertex 4 {m}

OS:Surface,
  {1c76372e-4150-4625-b978-e7dd269b531a}, !- Handle
  Office WholeBuilding - Sm Office  - Story ground Wall 2, !- Name
  Wall,                                   !- Surface Type
  ,                                       !- Construction Name
  {c11f5d71-ac1c-4b14-bd6c-eda5e056e896}, !- Space Name
  Outdoors,                               !- Outside Boundary Condition
  ,                                       !- Outside Boundary Condition Object
  SunExposed,                             !- Sun Exposure
  WindExposed,                            !- Wind Exposure
  ,                                       !- View Factor to Ground
  ,                                       !- Number of Vertices
  2.8421709430404e-14, 10.410901978215, 3.048, !- X,Y,Z Vertex 1 {m}
  31.2327059346448, 10.410901978215, 3.048, !- X,Y,Z Vertex 2 {m}
  31.2327059346448, 10.410901978215, 0,   !- X,Y,Z Vertex 3 {m}
  2.8421709430404e-14, 10.410901978215, 0; !- X,Y,Z Vertex 4 {m}

OS:Surface,
  {9b136912-225c-47fc-90e1-2e955d5f7d0c}, !- Handle
  Office WholeBuilding - Sm Office  - Story ground Wall 4, !- Name
  Wall,                                   !- Surface Type
  ,                                       !- Construction Name
  {c11f5d71-ac1c-4b14-bd6c-eda5e056e896}, !- Space Name
  Outdoors,                               !- Outside Boundary Condition
  ,                                       !- Outside Boundary Condition Object
  SunExposed,                             !- Sun Exposure
  WindExposed,                            !- Wind Exposure
  ,                                       !- View Factor to Ground
  ,                                       !- Number of Vertices
  31.2327059346448, 10.410901978215, 3.048, !- X,Y,Z Vertex 1 {m}
  31.2327059346448, -4.44089209850063e-15, 3.048, !- X,Y,Z Vertex 2 {m}
  31.2327059346448, -4.44089209850063e-15, 0, !- X,Y,Z Vertex 3 {m}
  31.2327059346448, 10.410901978215, 0;   !- X,Y,Z Vertex 4 {m}

OS:Surface,
  {67be5c7d-5a9f-4617-a0bc-9c5d856cd818}, !- Handle
  Office WholeBuilding - Sm Office  - Story ground Wall 1, !- Name
  Wall,                                   !- Surface Type
  ,                                       !- Construction Name
  {c11f5d71-ac1c-4b14-bd6c-eda5e056e896}, !- Space Name
  Outdoors,                               !- Outside Boundary Condition
  ,                                       !- Outside Boundary Condition Object
  SunExposed,                             !- Sun Exposure
  WindExposed,                            !- Wind Exposure
  ,                                       !- View Factor to Ground
  ,                                       !- Number of Vertices
  31.2327059346448, -4.44089209850063e-15, 3.048, !- X,Y,Z Vertex 1 {m}
  2.8421709430404e-14, -4.44089209850063e-15, 3.048, !- X,Y,Z Vertex 2 {m}
  2.8421709430404e-14, -4.44089209850063e-15, 0, !- X,Y,Z Vertex 3 {m}
  31.2327059346448, -4.44089209850063e-15, 0; !- X,Y,Z Vertex 4 {m}

OS:Surface,
  {16adadb7-9018-441e-a349-0261c6b2a9f6}, !- Handle
  Office WholeBuilding - Sm Office  - Story ground RoofCeiling 1, !- Name
  RoofCeiling,                            !- Surface Type
  ,                                       !- Construction Name
  {c11f5d71-ac1c-4b14-bd6c-eda5e056e896}, !- Space Name
  Outdoors,                               !- Outside Boundary Condition
  ,                                       !- Outside Boundary Condition Object
  SunExposed,                             !- Sun Exposure
  WindExposed,                            !- Wind Exposure
  ,                                       !- View Factor to Ground
  ,                                       !- Number of Vertices
  31.2327059346448, -4.44089209850063e-15, 3.048, !- X,Y,Z Vertex 1 {m}
  31.2327059346448, 10.410901978215, 3.048, !- X,Y,Z Vertex 2 {m}
  2.8421709430404e-14, 10.410901978215, 3.048, !- X,Y,Z Vertex 3 {m}
  2.8421709430404e-14, -4.44089209850063e-15, 3.048; !- X,Y,Z Vertex 4 {m}

OS:ThermalZone,
  {5f8deca6-f8f0-46dc-a050-bf52883a1bf1}, !- Handle
  Zone Office WholeBuilding - Sm Office  - Story ground, !- Name
  1,                                      !- Multiplier
  ,                                       !- Ceiling Height {m}
  ,                                       !- Volume {m3}
  ,                                       !- Floor Area {m2}
  ,                                       !- Zone Inside Convection Algorithm
  ,                                       !- Zone Outside Convection Algorithm
  ,                                       !- Zone Conditioning Equipment List Name
  {18712918-a872-478d-8031-a535d2036264}, !- Zone Air Inlet Port List
  {ff8e8c73-8731-4577-ac55-9c4646d7dd20}, !- Zone Air Exhaust Port List
  {9637294e-84e9-4238-b504-a11717646b06}, !- Zone Air Node Name
  {f106ff60-dc30-4089-aa91-bca99a72d7c4}, !- Zone Return Air Port List
  ,                                       !- Primary Daylighting Control Name
  ,                                       !- Fraction of Zone Controlled by Primary Daylighting Control
  ,                                       !- Secondary Daylighting Control Name
  ,                                       !- Fraction of Zone Controlled by Secondary Daylighting Control
  ,                                       !- Illuminance Map Name
  ,                                       !- Group Rendering Name
  {d160b6d2-2526-4711-b52a-ef4f667798ae}, !- Thermostat Name
  No;                                     !- Use Ideal Air Loads

OS:Node,
  {d86041a0-2701-49a9-975c-2eef8e766197}, !- Handle
  Zone Office WholeBuilding - Sm Office  - Story ground Zone Air Node, !- Name
  {9637294e-84e9-4238-b504-a11717646b06}, !- Inlet Port
  ;                                       !- Outlet Port

OS:Connection,
  {9637294e-84e9-4238-b504-a11717646b06}, !- Handle
  {5f8deca6-f8f0-46dc-a050-bf52883a1bf1}, !- Source Object
  11,                                     !- Outlet Port
  {d86041a0-2701-49a9-975c-2eef8e766197}, !- Target Object
  2;                                      !- Inlet Port

OS:PortList,
  {18712918-a872-478d-8031-a535d2036264}, !- Handle
  {5f8deca6-f8f0-46dc-a050-bf52883a1bf1}, !- HVAC Component
  {bac6ab62-445d-4d74-bb36-efde746e7354}; !- Port 1

OS:PortList,
  {ff8e8c73-8731-4577-ac55-9c4646d7dd20}, !- Handle
  {5f8deca6-f8f0-46dc-a050-bf52883a1bf1}; !- HVAC Component

OS:PortList,
  {f106ff60-dc30-4089-aa91-bca99a72d7c4}, !- Handle
  {5f8deca6-f8f0-46dc-a050-bf52883a1bf1}, !- HVAC Component
  {61c23f50-5a9d-4fdf-8104-66aad6726319}; !- Port 1

OS:Sizing:Zone,
  {ef6382ea-49a1-4d33-9125-69f8e1068737}, !- Handle
  {5f8deca6-f8f0-46dc-a050-bf52883a1bf1}, !- Zone or ZoneList Name
  SupplyAirTemperature,                   !- Zone Cooling Design Supply Air Temperature Input Method
  12.7777777777778,                       !- Zone Cooling Design Supply Air Temperature {C}
  11.11,                                  !- Zone Cooling Design Supply Air Temperature Difference {deltaC}
  SupplyAirTemperature,                   !- Zone Heating Design Supply Air Temperature Input Method
  50.0000000000001,                       !- Zone Heating Design Supply Air Temperature {C}
  11.11,                                  !- Zone Heating Design Supply Air Temperature Difference {deltaC}
  0.0085,                                 !- Zone Cooling Design Supply Air Humidity Ratio {kg-H2O/kg-air}
  0.008,                                  !- Zone Heating Design Supply Air Humidity Ratio {kg-H2O/kg-air}
  ,                                       !- Zone Heating Sizing Factor
  ,                                       !- Zone Cooling Sizing Factor
  DesignDay,                              !- Cooling Design Air Flow Method
  ,                                       !- Cooling Design Air Flow Rate {m3/s}
  ,                                       !- Cooling Minimum Air Flow per Zone Floor Area {m3/s-m2}
  ,                                       !- Cooling Minimum Air Flow {m3/s}
  ,                                       !- Cooling Minimum Air Flow Fraction
  DesignDay,                              !- Heating Design Air Flow Method
  ,                                       !- Heating Design Air Flow Rate {m3/s}
  ,                                       !- Heating Maximum Air Flow per Zone Floor Area {m3/s-m2}
  ,                                       !- Heating Maximum Air Flow {m3/s}
  ,                                       !- Heating Maximum Air Flow Fraction
  No,                                     !- Account for Dedicated Outdoor Air System
  NeutralSupplyAir,                       !- Dedicated Outdoor Air System Control Strategy
  autosize,                               !- Dedicated Outdoor Air Low Setpoint Temperature for Design {C}
  autosize,                               !- Dedicated Outdoor Air High Setpoint Temperature for Design {C}
  Sensible Load Only No Latent Load,      !- Zone Load Sizing Method
  HumidityRatioDifference,                !- Zone Latent Cooling Design Supply Air Humidity Ratio Input Method
  ,                                       !- Zone Dehumidification Design Supply Air Humidity Ratio {kgWater/kgDryAir}
  0.005,                                  !- Zone Cooling Design Supply Air Humidity Ratio Difference {kgWater/kgDryAir}
  HumidityRatioDifference,                !- Zone Latent Heating Design Supply Air Humidity Ratio Input Method
  ,                                       !- Zone Humidification Design Supply Air Humidity Ratio {kgWater/kgDryAir}
  0.005;                                  !- Zone Humidification Design Supply Air Humidity Ratio Difference {kgWater/kgDryAir}

OS:ZoneHVAC:EquipmentList,
  {d4d86657-5209-488a-bf0f-cc2abf4dd2cf}, !- Handle
  Zone Office WholeBuilding - Sm Office  - Story ground Zone HVAC Equipment List, !- Name
  {5f8deca6-f8f0-46dc-a050-bf52883a1bf1}, !- Thermal Zone
  ,                                       !- Load Distribution Scheme
  {b6083448-e7f2-43a3-8f8e-63a4ef78dff8}, !- Zone Equipment 1
  1,                                      !- Zone Equipment Cooling Sequence 1
  1,                                      !- Zone Equipment Heating or No-Load Sequence 1
  ,                                       !- Zone Equipment Sequential Cooling Fraction Schedule Name 1
  ;                                       !- Zone Equipment Sequential Heating Fraction Schedule Name 1

OS:SubSurface,
  {069d4eab-c1ec-49f0-9df6-4fc4a560b835}, !- Handle
  Office WholeBuilding - Sm Office  - Story ground Wall 1 FixedWindow 1, !- Name
  FixedWindow,                            !- Sub Surface Type
  ,                                       !- Construction Name
  {67be5c7d-5a9f-4617-a0bc-9c5d856cd818}, !- Surface Name
  ,                                       !- Outside Boundary Condition Object
  ,                                       !- View Factor to Ground
  ,                                       !- Frame and Divider Name
  ,                                       !- Multiplier
  ,                                       !- Number of Vertices
  0.0254000000000284, -4.44089209850063e-15, 1.92212694661973, !- X,Y,Z Vertex 1 {m}
  0.0254000000000284, -4.44089209850063e-15, 0.762, !- X,Y,Z Vertex 2 {m}
  31.2073059346448, -4.44089209850063e-15, 0.762, !- X,Y,Z Vertex 3 {m}
  31.2073059346448, -4.44089209850063e-15, 1.92212694661973; !- X,Y,Z Vertex 4 {m}

OS:SubSurface,
  {3a5584fd-aa0b-4c1f-a254-33af828b0a55}, !- Handle
  Office WholeBuilding - Sm Office  - Story ground Wall 2 FixedWindow 1, !- Name
  FixedWindow,                            !- Sub Surface Type
  ,                                       !- Construction Name
  {1c76372e-4150-4625-b978-e7dd269b531a}, !- Surface Name
  ,                                       !- Outside Boundary Condition Object
  ,                                       !- View Factor to Ground
  ,                                       !- Frame and Divider Name
  ,                                       !- Multiplier
  ,                                       !- Number of Vertices
  31.2073059346448, 10.410901978215, 1.92212694661973, !- X,Y,Z Vertex 1 {m}
  31.2073059346448, 10.410901978215, 0.762, !- X,Y,Z Vertex 2 {m}
  0.0254000000000261, 10.410901978215, 0.762, !- X,Y,Z Vertex 3 {m}
  0.0254000000000261, 10.410901978215, 1.92212694661973; !- X,Y,Z Vertex 4 {m}

OS:SubSurface,
  {418a1cdc-1370-4809-ab91-39ec618605b8}, !- Handle
  Office WholeBuilding - Sm Office  - Story ground Wall 3 FixedWindow 1, !- Name
  FixedWindow,                            !- Sub Surface Type
  ,                                       !- Construction Name
  {cca80208-22b4-4dba-84d3-14df0ca3dbdf}, !- Surface Name
  ,                                       !- Outside Boundary Condition Object
  ,                                       !- View Factor to Ground
  ,                                       !- Frame and Divider Name
  ,                                       !- Multiplier
  ,                                       !- Number of Vertices
  2.8421709430404e-14, 10.385501978215, 1.92591934486781, !- X,Y,Z Vertex 1 {m}
  2.8421709430404e-14, 10.385501978215, 0.762, !- X,Y,Z Vertex 2 {m}
  2.8421709430404e-14, 0.0253999999999959, 0.762, !- X,Y,Z Vertex 3 {m}
  2.8421709430404e-14, 0.0253999999999959, 1.92591934486781; !- X,Y,Z Vertex 4 {m}

OS:SubSurface,
  {9c854134-e62f-4eb7-917b-6cdc0e5be696}, !- Handle
  Office WholeBuilding - Sm Office  - Story ground Wall 4 FixedWindow 1, !- Name
  FixedWindow,                            !- Sub Surface Type
  ,                                       !- Construction Name
  {9b136912-225c-47fc-90e1-2e955d5f7d0c}, !- Surface Name
  ,                                       !- Outside Boundary Condition Object
  ,                                       !- View Factor to Ground
  ,                                       !- Frame and Divider Name
  ,                                       !- Multiplier
  ,                                       !- Number of Vertices
  31.2327059346448, 0.0253999999999956, 1.92591934486781, !- X,Y,Z Vertex 1 {m}
  31.2327059346448, 0.0253999999999956, 0.762, !- X,Y,Z Vertex 2 {m}
  31.2327059346448, 10.385501978215, 0.762, !- X,Y,Z Vertex 3 {m}
  31.2327059346448, 10.385501978215, 1.92591934486781; !- X,Y,Z Vertex 4 {m}

OS:RunPeriodControl:DaylightSavingTime,
  {34b28b14-7c9a-4f5f-ba46-8cb39b27f5bd}, !- Handle
  2nd Sunday in March,                    !- Start Date
  1st Sunday in November;                 !- End Date

OS:YearDescription,
  {5439e983-a1d5-4b57-8a6b-0e4786b7cdf7}, !- Handle
  2018,                                   !- Calendar Year
  ,                                       !- Day of Week for Start Day
  ;                                       !- Is Leap Year

OS:Timestep,
  {f5e6da30-9a58-4f2b-9ece-1a63b54179db}, !- Handle
  4;                                      !- Number of Timesteps per Hour

OS:RunPeriod,
  {ce4628ae-378c-4610-9e4e-0bbc93026170}, !- Handle
  Run Period 1,                           !- Name
  1,                                      !- Begin Month
  1,                                      !- Begin Day of Month
  12,                                     !- End Month
  31,                                     !- End Day of Month
  ,                                       !- Use Weather File Holidays and Special Days
  ,                                       !- Use Weather File Daylight Saving Period
  ,                                       !- Apply Weekend Holiday Rule
  ,                                       !- Use Weather File Rain Indicators
  ,                                       !- Use Weather File Snow Indicators
  ;                                       !- Number of Times Runperiod to be Repeated

OS:WeatherFile,
  {09b3998a-a70b-42f5-a04a-ed9e59628409}, !- Handle
  Fort Collins  Awos,                     !- City
  CO,                                     !- State Province Region
  USA,                                    !- Country
  TMY3,                                   !- Data Source
  724769,                                 !- WMO Number
  40.45,                                  !- Latitude {deg}
  -105.02,                                !- Longitude {deg}
  -7,                                     !- Time Zone {hr}
  1529,                                   !- Elevation {m}
  files/USA_CO_Fort.Collins.AWOS.724769_TMY3.epw, !- Url
  C2C10117,                               !- Checksum
  ,                                       !- Start Date Actual Year
  Sunday;                                 !- Start Day of Week

OS:SizingPeriod:DesignDay,
  {5e7005fb-1019-46c1-9baf-ca4b3cec04a0}, !- Handle
  Fort Collins  Awos Ann Clg .4% Condns DB=>MWB, !- Name
  34.2,                                   !- Maximum Dry-Bulb Temperature {C}
  15.7,                                   !- Daily Dry-Bulb Temperature Range {deltaC}
  84255,                                  !- Barometric Pressure {Pa}
  4.1,                                    !- Wind Speed {m/s}
  150,                                    !- Wind Direction {deg}
  ,                                       !- Sky Clearness
  No,                                     !- Rain Indicator
  No,                                     !- Snow Indicator
  21,                                     !- Day of Month
  7,                                      !- Month
  SummerDesignDay,                        !- Day Type
  No,                                     !- Daylight Saving Time Indicator
  Wetbulb,                                !- Humidity Condition Type
  ,                                       !- Humidity Condition Day Schedule Name
  15.8,                                   !- Wetbulb or DewPoint at Maximum Dry-Bulb {C}
  ,                                       !- Humidity Ratio at Maximum Dry-Bulb {kgWater/kgDryAir}
  ,                                       !- Enthalpy at Maximum Dry-Bulb {J/kg}
  DefaultMultipliers,                     !- Dry-Bulb Temperature Range Modifier Type
  ,                                       !- Dry-Bulb Temperature Range Modifier Day Schedule Name
  ASHRAETau,                              !- Solar Model Indicator
  ,                                       !- Beam Solar Day Schedule Name
  ,                                       !- Diffuse Solar Day Schedule Name
  0.431,                                  !- ASHRAE Clear Sky Optical Depth for Beam Irradiance {dimensionless}
  2.008;                                  !- ASHRAE Clear Sky Optical Depth for Diffuse Irradiance {dimensionless}

OS:SizingPeriod:DesignDay,
  {ec90e28c-833c-4fe8-ac6c-acc10979493d}, !- Handle
  Fort Collins  Awos Ann Clg .4% Condns WB=>MDB, !- Name
  27.9,                                   !- Maximum Dry-Bulb Temperature {C}
  15.7,                                   !- Daily Dry-Bulb Temperature Range {deltaC}
  84255,                                  !- Barometric Pressure {Pa}
  4.1,                                    !- Wind Speed {m/s}
  150,                                    !- Wind Direction {deg}
  ,                                       !- Sky Clearness
  No,                                     !- Rain Indicator
  No,                                     !- Snow Indicator
  21,                                     !- Day of Month
  7,                                      !- Month
  SummerDesignDay,                        !- Day Type
  No,                                     !- Daylight Saving Time Indicator
  Wetbulb,                                !- Humidity Condition Type
  ,                                       !- Humidity Condition Day Schedule Name
  18.2,                                   !- Wetbulb or DewPoint at Maximum Dry-Bulb {C}
  ,                                       !- Humidity Ratio at Maximum Dry-Bulb {kgWater/kgDryAir}
  ,                                       !- Enthalpy at Maximum Dry-Bulb {J/kg}
  DefaultMultipliers,                     !- Dry-Bulb Temperature Range Modifier Type
  ,                                       !- Dry-Bulb Temperature Range Modifier Day Schedule Name
  ASHRAETau,                              !- Solar Model Indicator
  ,                                       !- Beam Solar Day Schedule Name
  ,                                       !- Diffuse Solar Day Schedule Name
  0.431,                                  !- ASHRAE Clear Sky Optical Depth for Beam Irradiance {dimensionless}
  2.008;                                  !- ASHRAE Clear Sky Optical Depth for Diffuse Irradiance {dimensionless}

OS:SizingPeriod:DesignDay,
  {7bd62f8b-1e8e-4c3e-a0e4-1ee4073a9531}, !- Handle
  Fort Collins  Awos Ann Htg 99.6% Condns DB, !- Name
  -17.7,                                  !- Maximum Dry-Bulb Temperature {C}
  0,                                      !- Daily Dry-Bulb Temperature Range {deltaC}
  84255,                                  !- Barometric Pressure {Pa}
  2.2,                                    !- Wind Speed {m/s}
  70,                                     !- Wind Direction {deg}
  0,                                      !- Sky Clearness
  No,                                     !- Rain Indicator
  No,                                     !- Snow Indicator
  21,                                     !- Day of Month
  1,                                      !- Month
  WinterDesignDay,                        !- Day Type
  No,                                     !- Daylight Saving Time Indicator
  Wetbulb,                                !- Humidity Condition Type
  ,                                       !- Humidity Condition Day Schedule Name
  -17.7,                                  !- Wetbulb or DewPoint at Maximum Dry-Bulb {C}
  ,                                       !- Humidity Ratio at Maximum Dry-Bulb {kgWater/kgDryAir}
  ,                                       !- Enthalpy at Maximum Dry-Bulb {J/kg}
  DefaultMultipliers,                     !- Dry-Bulb Temperature Range Modifier Type
  ,                                       !- Dry-Bulb Temperature Range Modifier Day Schedule Name
  ASHRAEClearSky;                         !- Solar Model Indicator

OS:ClimateZones,
  {2badd941-381e-45a0-88d2-4fa20aaf3d8a}, !- Handle
  ASHRAE,                                 !- Climate Zone Institution Name 1
  ANSI/ASHRAE Standard 169,               !- Climate Zone Document Name 1
  2006,                                   !- Climate Zone Document Year 1
  5B,                                     !- Climate Zone Value 1
  CEC,                                    !- Climate Zone Institution Name 2
  California Climate Zone Descriptions,   !- Climate Zone Document Name 2
  1995,                                   !- Climate Zone Document Year 2
  ;                                       !- Climate Zone Value 2

OS:Site:WaterMainsTemperature,
  {baaa0a9c-233a-43a2-8b91-ee5e17461ece}, !- Handle
  Correlation,                            !- Calculation Method
  ,                                       !- Temperature Schedule Name
  8.25833333333333,                       !- Annual Average Outdoor Air Temperature {C}
  27.1;                                   !- Maximum Difference In Monthly Average Outdoor Air Temperatures {deltaC}

OS:Site:GroundTemperature:Shallow,
  {f1e9d78e-1863-4345-8d69-4b05f6ddeabf}, !- Handle
  1.3,                                    !- January Surface Ground Temperature {C}
  -2.9,                                   !- February Surface Ground Temperature {C}
  -4,                                     !- March Surface Ground Temperature {C}
  -3,                                     !- April Surface Ground Temperature {C}
  2.6,                                    !- May Surface Ground Temperature {C}
  9,                                      !- June Surface Ground Temperature {C}
  14.9,                                   !- July Surface Ground Temperature {C}
  19.2,                                   !- August Surface Ground Temperature {C}
  20.5,                                   !- September Surface Ground Temperature {C}
  18.5,                                   !- October Surface Ground Temperature {C}
  13.6,                                   !- November Surface Ground Temperature {C}
  7.4;                                    !- December Surface Ground Temperature {C}

OS:Site:GroundTemperature:Deep,
  {f4833143-1918-45ba-b99a-8f1e8b77c690}, !- Handle
  7.6,                                    !- January Deep Ground Temperature {C}
  4.5,                                    !- February Deep Ground Temperature {C}
  2.6,                                    !- March Deep Ground Temperature {C}