
OS:Version,
  {7dd4b55f-4792-4a4f-988c-17cb8d70838a}, !- Handle
  2.4.3;                                  !- Version Identifier

OS:Site,
  {dfe8f1a9-4642-489e-9d8f-d2d8753e9b34}, !- Handle
  Los Angeles Intl Arpt,                  !- Name
  33.93,                                  !- Latitude {deg}
  -118.4,                                 !- Longitude {deg}
  -8,                                     !- Time Zone {hr}
  30,                                     !- Elevation {m}
  ;                                       !- Terrain

OS:YearDescription,
  {eb2f3c32-a7c2-42ca-a07d-92ff5babde38}, !- Handle
  2000,                                   !- Calendar Year
  ,                                       !- Day of Week for Start Day
  ;                                       !- Is Leap Year

OS:ClimateZones,
  {58278bee-8377-4c40-950d-377ef00182af}, !- Handle
  ,                                       !- Active Institution
  ,                                       !- Active Year
  ,                                       !- Climate Zone Institution Name 1
  ,                                       !- Climate Zone Document Name 1
  ,                                       !- Climate Zone Document Year 1
  ,                                       !- Climate Zone Value 1
  CEC,                                    !- Climate Zone Institution Name 2
  California Climate Zone Descriptions,   !- Climate Zone Document Name 2
  1995,                                   !- Climate Zone Document Year 2
  9;                                      !- Climate Zone Value 2

OS:Building,
  {28cd65cc-3158-4ff0-8dd3-e9e38959a9de}, !- Handle
  Building 1,                             !- Name
  ,                                       !- Building Sector Type
  ,                                       !- North Axis {deg}
  ,                                       !- Nominal Floor to Floor Height {m}
  ,                                       !- Space Type Name
  {1bd1976a-a1d0-40ce-8ec8-ee28804f9775}, !- Default Construction Set Name
  ,                                       !- Default Schedule Set Name
  ,                                       !- Standards Number of Stories
  ,                                       !- Standards Number of Above Ground Stories
  ESe;                                    !- Standards Building Type

OS:Facility,
  {73ec091c-efa5-4d1a-8d06-4cf676b4a2ed}; !- Handle

OS:SimulationControl,
  {f8036d56-8825-4922-8a05-c830b715852f}, !- Handle
  ,                                       !- Do Zone Sizing Calculation
  ,                                       !- Do System Sizing Calculation
  ,                                       !- Do Plant Sizing Calculation
  No,                                     !- Run Simulation for Sizing Periods
  Yes;                                    !- Run Simulation for Weather File Run Periods

OS:Sizing:Parameters,
  {113d7bd7-7846-4020-8e98-eb5bb3e9272d}, !- Handle
  1.25,                                   !- Heating Sizing Factor
  1.15;                                   !- Cooling Sizing Factor

OS:Timestep,
  {2cc9f60d-8657-4874-9ef9-20b9cf84a0c9}, !- Handle
  6;                                      !- Number of Timesteps per Hour

OS:ShadowCalculation,
  {de734022-f093-4c2b-b9d1-2796070faf35}, !- Handle
  20,                                     !- Calculation Frequency
  15000;                                  !- Maximum Figures in Shadow Overlap Calculations

OS:HeatBalanceAlgorithm,
  {8eb52f47-0c87-4245-9ec8-44695a47710d}, !- Handle
  ConductionTransferFunction,             !- Algorithm
  200;                                    !- Surface Temperature Upper Limit {C}

OS:RunPeriod,
  {b6040081-6a93-474b-8554-baee3778b233}, !- Handle
  Run Period 1,                           !- Name
  1,                                      !- Begin Month
  1,                                      !- Begin Day of Month
  12,                                     !- End Month
  31,                                     !- End Day of Month
  ,                                       !- Use Weather File Holidays and Special Days
  ,                                       !- Use Weather File Daylight Saving Period
  ,                                       !- Apply Weekend Holiday Rule
  ,                                       !- Use Weather File Rain Indicators
  ,                                       !- Use Weather File Snow Indicators
  ;                                       !- Number of Times Runperiod to be Repeated

OS:LifeCycleCost:Parameters,
  {de886162-2edf-470f-a9e3-30569bcfde0a}, !- Handle
  ,                                       !- Analysis Type
  ,                                       !- Discounting Convention
  ,                                       !- Inflation Approach
  ,                                       !- Real Discount Rate
  ,                                       !- Nominal Discount Rate
  ,                                       !- Inflation
  ,                                       !- Base Date Month
  ,                                       !- Base Date Year
  ,                                       !- Service Date Month
  ,                                       !- Service Date Year
  ;                                       !- Length of Study Period in Years

OS:SizingPeriod:DesignDay,
  {8db6e390-7990-4ad4-8ddc-8dbd481d26bd}, !- Handle
  Los Angeles Intl Arpt Ann Htg 99.6% Condns DB, !- Name
  6.9,                                    !- Maximum Dry-Bulb Temperature {C}
  0,                                      !- Daily Dry-Bulb Temperature Range {deltaC}
  6.9,                                    !- Humidity Indicating Conditions at Maximum Dry-Bulb
  100965,                                 !- Barometric Pressure {Pa}
  2.4,                                    !- Wind Speed {m/s}
  90,                                     !- Wind Direction {deg}
  0,                                      !- Sky Clearness
  0,                                      !- Rain Indicator
  0,                                      !- Snow Indicator
  21,                                     !- Day of Month
  1,                                      !- Month
  WinterDesignDay,                        !- Day Type
  0,                                      !- Daylight Saving Time Indicator
  Wetbulb,                                !- Humidity Indicating Type
  ,                                       !- Humidity Indicating Day Schedule Name
  DefaultMultipliers,                     !- Dry-Bulb Temperature Range Modifier Type
  ,                                       !- Dry-Bulb Temperature Range Modifier Schedule Name
  ASHRAEClearSky;                         !- Solar Model Indicator

OS:SizingPeriod:DesignDay,
  {f09c265a-1019-406b-95de-e799255fd543}, !- Handle
  Los Angeles Intl Arpt Ann Hum_n 99.6% Condns DP=>MCDB, !- Name
  15.2,                                   !- Maximum Dry-Bulb Temperature {C}
  0,                                      !- Daily Dry-Bulb Temperature Range {deltaC}
  -10.6,                                  !- Humidity Indicating Conditions at Maximum Dry-Bulb
  100965,                                 !- Barometric Pressure {Pa}
  2.4,                                    !- Wind Speed {m/s}
  90,                                     !- Wind Direction {deg}
  0,                                      !- Sky Clearness
  0,                                      !- Rain Indicator
  0,                                      !- Snow Indicator
  21,                                     !- Day of Month
  1,                                      !- Month
  WinterDesignDay,                        !- Day Type
  0,                                      !- Daylight Saving Time Indicator
  Dewpoint,                               !- Humidity Indicating Type
  ,                                       !- Humidity Indicating Day Schedule Name
  DefaultMultipliers,                     !- Dry-Bulb Temperature Range Modifier Type
  ,                                       !- Dry-Bulb Temperature Range Modifier Schedule Name
  ASHRAEClearSky;                         !- Solar Model Indicator

OS:SizingPeriod:DesignDay,
  {6ed9ee75-b81b-424b-8f0b-22160f9d0f07}, !- Handle
  Los Angeles Intl Arpt Ann Htg Wind 99.6% Condns WS=>MCDB, !- Name
  13.6,                                   !- Maximum Dry-Bulb Temperature {C}
  0,                                      !- Daily Dry-Bulb Temperature Range {deltaC}
  13.6,                                   !- Humidity Indicating Conditions at Maximum Dry-Bulb
  100965,                                 !- Barometric Pressure {Pa}
  10.9,                                   !- Wind Speed {m/s}
  90,                                     !- Wind Direction {deg}
  0,                                      !- Sky Clearness
  0,                                      !- Rain Indicator
  0,                                      !- Snow Indicator
  21,                                     !- Day of Month
  1,                                      !- Month
  WinterDesignDay,                        !- Day Type
  0,                                      !- Daylight Saving Time Indicator
  Wetbulb,                                !- Humidity Indicating Type
  ,                                       !- Humidity Indicating Day Schedule Name
  DefaultMultipliers,                     !- Dry-Bulb Temperature Range Modifier Type
  ,                                       !- Dry-Bulb Temperature Range Modifier Schedule Name
  ASHRAEClearSky;                         !- Solar Model Indicator

OS:SizingPeriod:DesignDay,
  {86b05c0e-a7a0-4905-8fd8-86b6fa7a18a4}, !- Handle
  Los Angeles Intl Arpt Ann Clg .4% Condns DB=>MWB, !- Name
  28.7,                                   !- Maximum Dry-Bulb Temperature {C}
  6,                                      !- Daily Dry-Bulb Temperature Range {deltaC}
  17.9,                                   !- Humidity Indicating Conditions at Maximum Dry-Bulb
  100965,                                 !- Barometric Pressure {Pa}
  4.1,                                    !- Wind Speed {m/s}
  250,                                    !- Wind Direction {deg}
  0,                                      !- Sky Clearness
  0,                                      !- Rain Indicator
  0,                                      !- Snow Indicator
  21,                                     !- Day of Month
  8,                                      !- Month
  SummerDesignDay,                        !- Day Type
  0,                                      !- Daylight Saving Time Indicator
  Wetbulb,                                !- Humidity Indicating Type
  ,                                       !- Humidity Indicating Day Schedule Name
  DefaultMultipliers,                     !- Dry-Bulb Temperature Range Modifier Type
  ,                                       !- Dry-Bulb Temperature Range Modifier Schedule Name
  ASHRAETau,                              !- Solar Model Indicator
  ,                                       !- Beam Solar Day Schedule Name
  ,                                       !- Diffuse Solar Day Schedule Name
  0.44,                                   !- ASHRAE Taub {dimensionless}
  2.108;                                  !- ASHRAE Taud {dimensionless}

OS:SizingPeriod:DesignDay,
  {8731fabb-1f86-4036-a558-d635daef1b35}, !- Handle
  Los Angeles Intl Arpt Ann Clg .4% Condns WB=>MDB, !- Name
  25.6,                                   !- Maximum Dry-Bulb Temperature {C}
  6,                                      !- Daily Dry-Bulb Temperature Range {deltaC}
  21.2,                                   !- Humidity Indicating Conditions at Maximum Dry-Bulb
  100965,                                 !- Barometric Pressure {Pa}
  4.1,                                    !- Wind Speed {m/s}
  250,                                    !- Wind Direction {deg}
  0,                                      !- Sky Clearness
  0,                                      !- Rain Indicator
  0,                                      !- Snow Indicator
  21,                                     !- Day of Month
  8,                                      !- Month
  SummerDesignDay,                        !- Day Type
  0,                                      !- Daylight Saving Time Indicator
  Wetbulb,                                !- Humidity Indicating Type
  ,                                       !- Humidity Indicating Day Schedule Name
  DefaultMultipliers,                     !- Dry-Bulb Temperature Range Modifier Type
  ,                                       !- Dry-Bulb Temperature Range Modifier Schedule Name
  ASHRAETau,                              !- Solar Model Indicator
  ,                                       !- Beam Solar Day Schedule Name
  ,                                       !- Diffuse Solar Day Schedule Name
  0.44,                                   !- ASHRAE Taub {dimensionless}
  2.108;                                  !- ASHRAE Taud {dimensionless}

OS:SizingPeriod:DesignDay,
  {981e2986-4cfe-4d1c-b52a-64e99ddec162}, !- Handle
  Los Angeles Intl Arpt Ann Clg .4% Condns DP=>MDB, !- Name
  23.3,                                   !- Maximum Dry-Bulb Temperature {C}
  6,                                      !- Daily Dry-Bulb Temperature Range {deltaC}
  19.7,                                   !- Humidity Indicating Conditions at Maximum Dry-Bulb
  100965,                                 !- Barometric Pressure {Pa}
  4.1,                                    !- Wind Speed {m/s}
  250,                                    !- Wind Direction {deg}
  0,                                      !- Sky Clearness
  0,                                      !- Rain Indicator
  0,                                      !- Snow Indicator
  21,                                     !- Day of Month
  8,                                      !- Month
  SummerDesignDay,                        !- Day Type
  0,                                      !- Daylight Saving Time Indicator
  Dewpoint,                               !- Humidity Indicating Type
  ,                                       !- Humidity Indicating Day Schedule Name
  DefaultMultipliers,                     !- Dry-Bulb Temperature Range Modifier Type
  ,                                       !- Dry-Bulb Temperature Range Modifier Schedule Name
  ASHRAETau,                              !- Solar Model Indicator
  ,                                       !- Beam Solar Day Schedule Name
  ,                                       !- Diffuse Solar Day Schedule Name
  0.44,                                   !- ASHRAE Taub {dimensionless}
  2.108;                                  !- ASHRAE Taud {dimensionless}

OS:SizingPeriod:DesignDay,
  {67134a13-6a99-4e33-8860-62484c6f84bb}, !- Handle
  Los Angeles Intl Arpt Ann Clg .4% Condns Enth=>MDB, !- Name
  25.7,                                   !- Maximum Dry-Bulb Temperature {C}
  6,                                      !- Daily Dry-Bulb Temperature Range {deltaC}
  61900,                                  !- Humidity Indicating Conditions at Maximum Dry-Bulb
  100965,                                 !- Barometric Pressure {Pa}
  4.1,                                    !- Wind Speed {m/s}
  250,                                    !- Wind Direction {deg}
  0,                                      !- Sky Clearness
  0,                                      !- Rain Indicator
  0,                                      !- Snow Indicator
  21,                                     !- Day of Month
  8,                                      !- Month
  SummerDesignDay,                        !- Day Type
  0,                                      !- Daylight Saving Time Indicator
  Enthalpy,                               !- Humidity Indicating Type
  ,                                       !- Humidity Indicating Day Schedule Name
  DefaultMultipliers,                     !- Dry-Bulb Temperature Range Modifier Type
  ,                                       !- Dry-Bulb Temperature Range Modifier Schedule Name
  ASHRAETau,                              !- Solar Model Indicator
  ,                                       !- Beam Solar Day Schedule Name
  ,                                       !- Diffuse Solar Day Schedule Name
  0.44,                                   !- ASHRAE Taub {dimensionless}
  2.108;                                  !- ASHRAE Taud {dimensionless}

OS:SpaceType,
  {7e56fe34-9a0a-431b-b6de-2a3534b91d98}, !- Handle
  ESe Classroom,                          !- Name
  ,                                       !- Default Construction Set Name
  {552b2caa-e46b-477e-801c-b3ff22c3296e}, !- Default Schedule Set Name
  {5d552756-0509-49a3-b84e-7ae4bf202242}, !- Group Rendering Name
  {d1a5295d-a8b6-4107-bfbd-e9b4ff5d770a}, !- Design Specification Outdoor Air Object Name
  ESe,                                    !- Standards Building Type
  Classroom;                              !- Standards Space Type

OS:DefaultScheduleSet,
  {552b2caa-e46b-477e-801c-b3ff22c3296e}, !- Handle
  ESe Classroom Schedule Set,             !- Name
  ,                                       !- Hours of Operation Schedule Name
  {ba25abd5-c539-464d-bd0e-b836eda8b078}, !- Number of People Schedule Name
  {2216ba95-b97f-4ecb-9e36-7204b616f37f}, !- People Activity Level Schedule Name
  {ad19e410-3ec6-448f-8c2a-e85757345ea6}, !- Lighting Schedule Name
  {929c339b-04a5-4ac8-b4be-17a7bc04a30b}, !- Electric Equipment Schedule Name
  ,                                       !- Gas Equipment Schedule Name
  ,                                       !- Hot Water Equipment Schedule Name
  {afe6d9a4-463d-4da6-88c8-f527cd7bed36}, !- Infiltration Schedule Name
  ,                                       !- Steam Equipment Schedule Name
  ;                                       !- Other Equipment Schedule Name

OS:DesignSpecification:OutdoorAir,
  {d1a5295d-a8b6-4107-bfbd-e9b4ff5d770a}, !- Handle
  ESe Classroom Ventilation,              !- Name
  Sum,                                    !- Outdoor Air Method
  ,                                       !- Outdoor Air Flow per Person {m3/s-person}
  0.00254,                                !- Outdoor Air Flow per Floor Area {m3/s-m2}
  ,                                       !- Outdoor Air Flow Rate {m3/s}
  ,                                       !- Outdoor Air Flow Air Changes per Hour {1/hr}
  ;                                       !- Outdoor Air Flow Rate Fraction Schedule Name

OS:Schedule:Ruleset,
  {ba25abd5-c539-464d-bd0e-b836eda8b078}, !- Handle
  D_ESe_Clrm_Occup_Yr,                    !- Name
  {4c0f5052-79cd-45b8-a0ed-404eb8f3a957}, !- Schedule Type Limits Name
  {4bccc3f2-536d-473c-9847-b33447edb774}, !- Default Day Schedule Name
  {c75f6e42-0aa1-42a6-8d71-3ce4d0c0c0ad}, !- Summer Design Day Schedule Name
  {424c4ecb-5b45-4d56-98ac-b470773408bc}; !- Winter Design Day Schedule Name

OS:Schedule:Day,
  {4bccc3f2-536d-473c-9847-b33447edb774}, !- Handle
  D_ESe_Clrm_Occup_Yr Default,            !- Name
  {4c0f5052-79cd-45b8-a0ed-404eb8f3a957}, !- Schedule Type Limits Name
  ,                                       !- Interpolate to Timestep
  7,                                      !- Hour 1
  0,                                      !- Minute 1
  0,                                      !- Value Until Time 1
  9,                                      !- Hour 2
  0,                                      !- Minute 2
  0.6,                                    !- Value Until Time 2
  14,                                     !- Hour 3
  0,                                      !- Minute 3
  1,                                      !- Value Until Time 3
  18,                                     !- Hour 4
  0,                                      !- Minute 4
  0.5,                                    !- Value Until Time 4
  19,                                     !- Hour 5
  0,                                      !- Minute 5
  0.1,                                    !- Value Until Time 5
  24,                                     !- Hour 6
  0,                                      !- Minute 6
  0;                                      !- Value Until Time 6

OS:Schedule:Day,
  {c75f6e42-0aa1-42a6-8d71-3ce4d0c0c0ad}, !- Handle
  D_ESe_Clrm_Occup_Yr Summer Design Day 4, !- Name
  {4c0f5052-79cd-45b8-a0ed-404eb8f3a957}, !- Schedule Type Limits Name
  ,                                       !- Interpolate to Timestep
  24,                                     !- Hour 1
  0,                                      !- Minute 1
  0;                                      !- Value Until Time 1

OS:Schedule:Day,
  {424c4ecb-5b45-4d56-98ac-b470773408bc}, !- Handle
  D_ESe_Clrm_Occup_Yr Winter Design Day 4, !- Name
  {4c0f5052-79cd-45b8-a0ed-404eb8f3a957}, !- Schedule Type Limits Name
  ,                                       !- Interpolate to Timestep
  24,                                     !- Hour 1
  0,                                      !- Minute 1
  0;                                      !- Value Until Time 1

OS:Schedule:Rule,
  {a9b31282-8d23-4a91-ba49-abbae88fc2c6}, !- Handle
  Schedule Rule 550,                      !- Name
  {ba25abd5-c539-464d-bd0e-b836eda8b078}, !- Schedule Ruleset Name
  0,                                      !- Rule Order
  {052299e3-9492-4a84-8721-7681fffb422e}, !- Day Schedule Name
  Yes,                                    !- Apply Sunday
  ,                                       !- Apply Monday
  ,                                       !- Apply Tuesday
  ,                                       !- Apply Wednesday
  ,                                       !- Apply Thursday
  ,                                       !- Apply Friday
  ,                                       !- Apply Saturday
  ,                                       !- Apply Holiday
  DateRange,                              !- Date Specification Type
  8,                                      !- Start Month
  17,                                     !- Start Day
  12,                                     !- End Month
  11;                                     !- End Day

OS:Schedule:Rule,
  {363f69c8-ef0a-4eea-a65e-f86866795cd2}, !- Handle
  Schedule Rule 549,                      !- Name
  {ba25abd5-c539-464d-bd0e-b836eda8b078}, !- Schedule Ruleset Name
  1,                                      !- Rule Order
  {470dabc9-531f-4f17-ab40-6324e75a8327}, !- Day Schedule Name
  ,                                       !- Apply Sunday
  ,                                       !- Apply Monday
  ,                                       !- Apply Tuesday
  ,                                       !- Apply Wednesday
  ,                                       !- Apply Thursday
  ,                                       !- Apply Friday
  Yes,                                    !- Apply Saturday
  ,                                       !- Apply Holiday
  DateRange,                              !- Date Specification Type
  8,                                      !- Start Month
  17,                                     !- Start Day
  12,                                     !- End Month
  11;                                     !- End Day

OS:Schedule:Rule,
  {d6fc1739-a281-4d43-9b28-adb03d46858e}, !- Handle
  Schedule Rule 548,                      !- Name
  {ba25abd5-c539-464d-bd0e-b836eda8b078}, !- Schedule Ruleset Name
  2,                                      !- Rule Order
  {1a61e33b-7b81-4115-8301-20649a077d4b}, !- Day Schedule Name
  ,                                       !- Apply Sunday
  Yes,                                    !- Apply Monday
  Yes,                                    !- Apply Tuesday
  Yes,                                    !- Apply Wednesday
  Yes,                                    !- Apply Thursday
  Yes,                                    !- Apply Friday
  ,                                       !- Apply Saturday
  ,                                       !- Apply Holiday
  DateRange,                              !- Date Specification Type
  8,                                      !- Start Month
  17,                                     !- Start Day
  12,                                     !- End Month
  11;                                     !- End Day

OS:Schedule:Rule,
  {f0401a1b-0cf4-437c-8b43-74fc3157b396}, !- Handle
  Schedule Rule 547,                      !- Name
  {ba25abd5-c539-464d-bd0e-b836eda8b078}, !- Schedule Ruleset Name
  3,                                      !- Rule Order
  {41d8a825-ec97-4f5c-8c8f-4adafe8a2e0b}, !- Day Schedule Name
  Yes,                                    !- Apply Sunday
  ,                                       !- Apply Monday
  ,                                       !- Apply Tuesday
  ,                                       !- Apply Wednesday
  ,                                       !- Apply Thursday
  ,                                       !- Apply Friday
  ,                                       !- Apply Saturday
  ,                                       !- Apply Holiday
  DateRange,                              !- Date Specification Type
  4,                                      !- Start Month
  13,                                     !- Start Day
  6,                                      !- End Month
  12;                                     !- End Day

OS:Schedule:Rule,
  {b0275124-0bef-4413-98e7-2c010ac29e15}, !- Handle
  Schedule Rule 546,                      !- Name
  {ba25abd5-c539-464d-bd0e-b836eda8b078}, !- Schedule Ruleset Name
  4,                                      !- Rule Order
  {36f819e4-5bc5-45c9-96d6-ec9b92c97e5b}, !- Day Schedule Name
  ,                                       !- Apply Sunday
  ,                                       !- Apply Monday
  ,                                       !- Apply Tuesday
  ,                                       !- Apply Wednesday
  ,                                       !- Apply Thursday
  ,                                       !- Apply Friday
  Yes,                                    !- Apply Saturday
  ,                                       !- Apply Holiday
  DateRange,                              !- Date Specification Type
  4,                                      !- Start Month
  13,                                     !- Start Day
  6,                                      !- End Month
  12;                                     !- End Day

OS:Schedule:Rule,
  {250db073-af56-4e8c-ac9f-a5e645cc95ec}, !- Handle
  Schedule Rule 545,                      !- Name
  {ba25abd5-c539-464d-bd0e-b836eda8b078}, !- Schedule Ruleset Name
  5,                                      !- Rule Order
  {fb3959c3-c89b-4a7e-b46f-9b59f8eed671}, !- Day Schedule Name
  ,                                       !- Apply Sunday
  Yes,                                    !- Apply Monday
  Yes,                                    !- Apply Tuesday
  Yes,                                    !- Apply Wednesday
  Yes,                                    !- Apply Thursday
  Yes,                                    !- Apply Friday
  ,                                       !- Apply Saturday
  ,                                       !- Apply Holiday
  DateRange,                              !- Date Specification Type
  4,                                      !- Start Month
  13,                                     !- Start Day
  6,                                      !- End Month
  12;                                     !- End Day

OS:Schedule:Rule,
  {fe73bb71-218a-4aa7-8234-94529201e29a}, !- Handle
  Schedule Rule 544,                      !- Name
  {ba25abd5-c539-464d-bd0e-b836eda8b078}, !- Schedule Ruleset Name
  6,                                      !- Rule Order
  {792be5c8-00b7-417b-b834-670003a15dc5}, !- Day Schedule Name
  Yes,                                    !- Apply Sunday
  ,                                       !- Apply Monday
  ,                                       !- Apply Tuesday
  ,                                       !- Apply Wednesday
  ,                                       !- Apply Thursday
  ,                                       !- Apply Friday
  ,                                       !- Apply Saturday
  ,                                       !- Apply Holiday
  DateRange,                              !- Date Specification Type
  1,                                      !- Start Month
  5,                                      !- Start Day
  4,                                      !- End Month
  3;                                      !- End Day

OS:Schedule:Rule,
  {777ae18c-8f14-4f64-baf5-dea61b3ccd63}, !- Handle
  Schedule Rule 543,                      !- Name
  {ba25abd5-c539-464d-bd0e-b836eda8b078}, !- Schedule Ruleset Name
  7,                                      !- Rule Order
  {7a47f4b4-e9b1-48db-ac73-d2a586cd09e8}, !- Day Schedule Name
  ,                                       !- Apply Sunday
  ,                                       !- Apply Monday
  ,                                       !- Apply Tuesday
  ,                                       !- Apply Wednesday
  ,                                       !- Apply Thursday
  ,                                       !- Apply Friday
  Yes,                                    !- Apply Saturday
  ,                                       !- Apply Holiday
  DateRange,                              !- Date Specification Type
  1,                                      !- Start Month
  5,                                      !- Start Day
  4,                                      !- End Month
  3;                                      !- End Day

OS:Schedule:Rule,
  {b786febf-8285-4901-9e97-c5eabfbfa2cb}, !- Handle
  Schedule Rule 542,                      !- Name
  {ba25abd5-c539-464d-bd0e-b836eda8b078}, !- Schedule Ruleset Name
  8,                                      !- Rule Order
  {6bc8f95b-f708-4ebd-97f1-9f6132efa5e0}, !- Day Schedule Name
  ,                                       !- Apply Sunday