
OS:Version,
  {3db57c84-3ec3-49b7-8520-b76d1f759665}, !- Handle
  3.8.0;                                  !- Version Identifier

OS:Site,
  {84f8bc4e-8e16-4179-b409-c3025742f2e2}, !- Handle
  Chicago O'Hare TMY3,                    !- Name
  41.98,                                  !- Latitude {deg}
  -87.92,                                 !- Longitude {deg}
  -6,                                     !- Time Zone {hr}
  201,                                    !- Elevation {m}
  City;                                   !- Terrain

OS:SimulationControl,
  {6f25dcfd-9da6-4227-8376-2ef342a50530}, !- Handle
  No,                                     !- Do Zone Sizing Calculation
  No,                                     !- Do System Sizing Calculation
  No,                                     !- Do Plant Sizing Calculation
  No,                                     !- Run Simulation for Sizing Periods
  Yes,                                    !- Run Simulation for Weather File Run Periods
  0.04,                                   !- Loads Convergence Tolerance Value {W}
  0.4,                                    !- Temperature Convergence Tolerance Value {deltaC}
  FullInteriorAndExterior,                !- Solar Distribution
  25,                                     !- Maximum Number of Warmup Days
  ,                                       !- Minimum Number of Warmup Days
  No,                                     !- Do HVAC Sizing Simulation for Sizing Periods
  1;                                      !- Maximum Number of HVAC Sizing Simulation Passes

OS:RunPeriod,
  {08a5494e-165d-468b-b6e0-eddde4473a7d}, !- Handle
  Year,                                   !- Name
  1,                                      !- Begin Month
  1,                                      !- Begin Day of Month
  12,                                     !- End Month
  31,                                     !- End Day of Month
  No,                                     !- Use Weather File Holidays and Special Days
  No,                                     !- Use Weather File Daylight Saving Period
  No,                                     !- Apply Weekend Holiday Rule
  Yes,                                    !- Use Weather File Rain Indicators
  Yes,                                    !- Use Weather File Snow Indicators
  ;                                       !- Number of Times Runperiod to be Repeated

OS:YearDescription,
  {a933be68-5669-45cb-9585-a728edf79ade}, !- Handle
  2025,                                   !- Calendar Year
  ,                                       !- Day of Week for Start Day
  ;                                       !- Is Leap Year

OS:Timestep,
  {9e5803bd-02df-4ccf-a074-6cec73e417d0}, !- Handle
  4;                                      !- Number of Timesteps per Hour

OS:Building,
  {b9eaee84-3d58-4742-943c-5c928db35b4a}, !- Handle
  Box,                                    !- Name
  ,                                       !- Building Sector Type
  0,                                      !- North Axis {deg}
  ,                                       !- Nominal Floor to Floor Height {m}
  ,                                       !- Space Type Name
  ,                                       !- Default Construction Set Name
  ;                                       !- Default Schedule Set Name

OS:Material,
  {32d718ea-0beb-47b9-b6c5-dd15bd0071d8}, !- Handle
  Insul Matl,                             !- Name
  MediumRough,                            !- Roughness
  0.0508,                                 !- Thickness {m}
  0.03,                                   !- Conductivity {W/m-K}
  43,                                     !- Density {kg/m3}
  1210;                                   !- Specific Heat {J/kg-K}

OS:Material,
  {f953bbf5-9b08-4b68-ba01-1c1c755df8e1}, !- Handle
  Gypsum Matl,                            !- Name
  MediumSmooth,                           !- Roughness
  0.019,                                  !- Thickness {m}
  0.16,                                   !- Conductivity {W/m-K}
  800,                                    !- Density {kg/m3}
  1090;                                   !- Specific Heat {J/kg-K}

OS:Material,
  {a68c4c53-5a09-47a7-a041-b3e5d7a332d8}, !- Handle
  Acoustic Tile Matl,                     !- Name
  MediumSmooth,                           !- Roughness
  0.0191,                                 !- Thickness {m}
  0.06,                                   !- Conductivity {W/m-K}
  368,                                    !- Density {kg/m3}
  590;                                    !- Specific Heat {J/kg-K}

OS:Schedule:Constant,
  {af445351-9b8d-4cb3-addc-b34c51f0a773}, !- Handle
  Clg Setpt,                              !- Name
  {954cccc1-fec9-4357-b871-6e1bd300b531}, !- Schedule Type Limits Name
  23;                                     !- Value

OS:ScheduleTypeLimits,
  {954cccc1-fec9-4357-b871-6e1bd300b531}, !- Handle
  Temperature,                            !- Name
  -100,                                   !- Lower Limit Value
  100,                                    !- Upper Limit Value
  Continuous,                             !- Numeric Type
  Temperature;                            !- Unit Type

OS:Material,
  {ebaed192-06d5-4a9e-bcff-3daaafab2f2d}, !- Handle
  Brick Matl,                             !- Name
  MediumRough,                            !- Roughness
  0.1016,                                 !- Thickness {m}
  0.89,                                   !- Conductivity {W/m-K}
  1920,                                   !- Density {kg/m3}
  790;                                    !- Specific Heat {J/kg-K}

OS:Material,
  {63eeebc6-515d-4c95-9bed-986d1781b3ae}, !- Handle
  Concrete Matl,                          !- Name
  MediumRough,                            !- Roughness
  0.2032,                                 !- Thickness {m}
  1.95,                                   !- Conductivity {W/m-K}
  2240,                                   !- Density {kg/m3}
  900;                                    !- Specific Heat {J/kg-K}

OS:Material,
  {1fe839de-7441-4f6b-8b19-2bab76bc80f4}, !- Handle
  Wood Matl,                              !- Name
  MediumSmooth,                           !- Roughness
  0.15,                                   !- Thickness {m}
  0.12,                                   !- Conductivity {W/m-K}
  540,                                    !- Density {kg/m3}
  1210;                                   !- Specific Heat {J/kg-K}

OS:Material:AirGap,
  {bbf59989-e7a8-4413-8d9e-bfa7a34fbd91}, !- Handle
  Wall Air Gap Matl,                      !- Name
  0.15;                                   !- Thermal Resistance {m2-K/W}

OS:Material:AirGap,
  {4b399894-7f04-4ecc-80da-15c235f23a42}, !- Handle
  Ceiling Air Gap Matl,                   !- Name
  0.18;                                   !- Thermal Resistance {m2-K/W}

OS:WindowMaterial:Glazing,
  {658b09e1-5ed2-4052-a58a-77e6f414f405}, !- Handle
  Glass Matl,                             !- Name
  SpectralAverage,                        !- Optical Data Type
  ,                                       !- Window Glass Spectral Data Set Name
  0.003,                                  !- Thickness {m}
  0.837,                                  !- Solar Transmittance at Normal Incidence
  0.075,                                  !- Front Side Solar Reflectance at Normal Incidence
  0.075,                                  !- Back Side Solar Reflectance at Normal Incidence
  0.898,                                  !- Visible Transmittance at Normal Incidence
  0.081,                                  !- Front Side Visible Reflectance at Normal Incidence
  0.081,                                  !- Back Side Visible Reflectance at Normal Incidence
  0,                                      !- Infrared Transmittance at Normal Incidence
  0.84,                                   !- Front Side Infrared Hemispherical Emissivity
  0.84,                                   !- Back Side Infrared Hemispherical Emissivity
  0.9;                                    !- Conductivity {W/m-K}

OS:WindowMaterial:Gas,
  {036f41a8-afa3-4975-9c53-05c1b210b28f}, !- Handle
  Wind Air Gap Matl,                      !- Name
  Air,                                    !- Gas Type
  0.0127;                                 !- Thickness {m}

OS:Construction,
  {db525802-1bf6-4154-ba5d-3eba80931243}, !- Handle
  Ext Slab Con,                           !- Name
  ,                                       !- Surface Rendering Name
  {32d718ea-0beb-47b9-b6c5-dd15bd0071d8}, !- Layer 1
  {63eeebc6-515d-4c95-9bed-986d1781b3ae}; !- Layer 2

OS:Construction,
  {3554e4db-89f0-40ce-a52a-89fe80e62448}, !- Handle
  Int Flr Con,                            !- Name
  ,                                       !- Surface Rendering Name
  {63eeebc6-515d-4c95-9bed-986d1781b3ae}; !- Layer 1

OS:Construction,
  {32708685-ddd8-45fd-a2d4-47602f5a3944}, !- Handle
  Int Ceil Con,                           !- Name
  ,                                       !- Surface Rendering Name
  {63eeebc6-515d-4c95-9bed-986d1781b3ae}; !- Layer 1

OS:Construction,
  {e926a984-4a76-48fb-b794-1eb3f722a08e}, !- Handle
  Ext Flr Con,                            !- Name
  ,                                       !- Surface Rendering Name
  {ebaed192-06d5-4a9e-bcff-3daaafab2f2d}, !- Layer 1
  {32d718ea-0beb-47b9-b6c5-dd15bd0071d8}, !- Layer 2
  {63eeebc6-515d-4c95-9bed-986d1781b3ae}; !- Layer 3

OS:Construction,
  {1534cb02-4fae-4fc8-b052-cd50685bc400}, !- Handle
  Ext Wall Con,                           !- Name
  ,                                       !- Surface Rendering Name
  {ebaed192-06d5-4a9e-bcff-3daaafab2f2d}, !- Layer 1
  {63eeebc6-515d-4c95-9bed-986d1781b3ae}, !- Layer 2
  {32d718ea-0beb-47b9-b6c5-dd15bd0071d8}, !- Layer 3
  {bbf59989-e7a8-4413-8d9e-bfa7a34fbd91}, !- Layer 4
  {f953bbf5-9b08-4b68-ba01-1c1c755df8e1}; !- Layer 5

OS:Construction,
  {a9251099-64bb-423f-9763-b8fe10ca6be5}, !- Handle
  Fnd Wall Con,                           !- Name
  ,                                       !- Surface Rendering Name
  {63eeebc6-515d-4c95-9bed-986d1781b3ae}, !- Layer 1
  {32d718ea-0beb-47b9-b6c5-dd15bd0071d8}, !- Layer 2
  {bbf59989-e7a8-4413-8d9e-bfa7a34fbd91}, !- Layer 3
  {f953bbf5-9b08-4b68-ba01-1c1c755df8e1}; !- Layer 4

OS:Construction,
  {b506d433-78f0-4fdf-a2a8-7cfe629d3725}, !- Handle
  Int Wall Con,                           !- Name
  ,                                       !- Surface Rendering Name
  {f953bbf5-9b08-4b68-ba01-1c1c755df8e1}, !- Layer 1
  {bbf59989-e7a8-4413-8d9e-bfa7a34fbd91}, !- Layer 2
  {f953bbf5-9b08-4b68-ba01-1c1c755df8e1}; !- Layer 3

OS:Construction,
  {b8b3a3a3-5e89-41ce-8ecc-2eac7954ecfe}, !- Handle
  Ext Roof Con,                           !- Name
  ,                                       !- Surface Rendering Name
  {63eeebc6-515d-4c95-9bed-986d1781b3ae}, !- Layer 1
  {32d718ea-0beb-47b9-b6c5-dd15bd0071d8}, !- Layer 2
  {4b399894-7f04-4ecc-80da-15c235f23a42}, !- Layer 3
  {a68c4c53-5a09-47a7-a041-b3e5d7a332d8}; !- Layer 4

OS:Construction,
  {227bb606-ff02-4316-a2eb-55a49ff85758}, !- Handle
  Win Con,                                !- Name
  ,                                       !- Surface Rendering Name
  {658b09e1-5ed2-4052-a58a-77e6f414f405}, !- Layer 1
  {036f41a8-afa3-4975-9c53-05c1b210b28f}, !- Layer 2
  {658b09e1-5ed2-4052-a58a-77e6f414f405}; !- Layer 3

OS:Construction,
  {41eadf38-9aac-4172-8682-2e9202ceea03}, !- Handle
  Door Con,                               !- Name
  ,                                       !- Surface Rendering Name
  {1fe839de-7441-4f6b-8b19-2bab76bc80f4}; !- Layer 1

OS:Construction,
  {e4d836d5-554e-4bcc-9def-79888ceddbd6}, !- Handle
  Int Mass Con,                           !- Name
  ,                                       !- Surface Rendering Name
  {1fe839de-7441-4f6b-8b19-2bab76bc80f4}; !- Layer 1

OS:ThermalZone,
  {bff3eb70-c4f0-4a23-8920-767bfabdfe82}, !- Handle
  Zn1,                                    !- Name
  1,                                      !- Multiplier
  ,                                       !- Ceiling Height {m}
  ,                                       !- Volume {m3}
  ,                                       !- Floor Area {m2}
  ,                                       !- Zone Inside Convection Algorithm
  ,                                       !- Zone Outside Convection Algorithm
  ,                                       !- Zone Conditioning Equipment List Name
  {d4085a35-3241-4fa8-8379-a06d362c608e}, !- Zone Air Inlet Port List
  {2dbf2d0f-f5ff-4884-872c-deed4302640b}, !- Zone Air Exhaust Port List
  {5eb24528-5acd-4928-902d-81b333c64dac}, !- Zone Air Node Name
  {fa1840ad-8222-4653-bec6-52c038aebd6b}, !- Zone Return Air Port List
  ,                                       !- Primary Daylighting Control Name
  ,                                       !- Fraction of Zone Controlled by Primary Daylighting Control
  ,                                       !- Secondary Daylighting Control Name
  ,                                       !- Fraction of Zone Controlled by Secondary Daylighting Control
  ,                                       !- Illuminance Map Name
  ,                                       !- Group Rendering Name
  {42abf0cc-fab1-4ecf-b1af-1c7c999a0228}, !- Thermostat Name
  No;                                     !- Use Ideal Air Loads

OS:Node,
  {20cc7d8d-da2f-4c2f-87f8-638b08c1a6b6}, !- Handle
  Node 1,                                 !- Name
  {5eb24528-5acd-4928-902d-81b333c64dac}, !- Inlet Port
  ;                                       !- Outlet Port

OS:Connection,
  {5eb24528-5acd-4928-902d-81b333c64dac}, !- Handle
  {bff3eb70-c4f0-4a23-8920-767bfabdfe82}, !- Source Object
  11,                                     !- Outlet Port
  {20cc7d8d-da2f-4c2f-87f8-638b08c1a6b6}, !- Target Object
  2;                                      !- Inlet Port

OS:PortList,
  {d4085a35-3241-4fa8-8379-a06d362c608e}, !- Handle
  {bff3eb70-c4f0-4a23-8920-767bfabdfe82}; !- HVAC Component

OS:PortList,
  {2dbf2d0f-f5ff-4884-872c-deed4302640b}, !- Handle
  {bff3eb70-c4f0-4a23-8920-767bfabdfe82}; !- HVAC Component

OS:PortList,
  {fa1840ad-8222-4653-bec6-52c038aebd6b}, !- Handle
  {bff3eb70-c4f0-4a23-8920-767bfabdfe82}; !- HVAC Component

OS:Sizing:Zone,
  {b718aa02-4029-43ec-95d1-f2b545c75b6c}, !- Handle
  {bff3eb70-c4f0-4a23-8920-767bfabdfe82}, !- Zone or ZoneList Name
  SupplyAirTemperature,                   !- Zone Cooling Design Supply Air Temperature Input Method
  14,                                     !- Zone Cooling Design Supply Air Temperature {C}
  11.11,                                  !- Zone Cooling Design Supply Air Temperature Difference {deltaC}
  SupplyAirTemperature,                   !- Zone Heating Design Supply Air Temperature Input Method
  40,                                     !- Zone Heating Design Supply Air Temperature {C}
  11.11,                                  !- Zone Heating Design Supply Air Temperature Difference {deltaC}
  0.0085,                                 !- Zone Cooling Design Supply Air Humidity Ratio {kg-H2O/kg-air}
  0.008,                                  !- Zone Heating Design Supply Air Humidity Ratio {kg-H2O/kg-air}
  ,                                       !- Zone Heating Sizing Factor
  ,                                       !- Zone Cooling Sizing Factor
  DesignDay,                              !- Cooling Design Air Flow Method
  ,                                       !- Cooling Design Air Flow Rate {m3/s}
  ,                                       !- Cooling Minimum Air Flow per Zone Floor Area {m3/s-m2}
  ,                                       !- Cooling Minimum Air Flow {m3/s}
  ,                                       !- Cooling Minimum Air Flow Fraction
  DesignDay,                              !- Heating Design Air Flow Method
  ,                                       !- Heating Design Air Flow Rate {m3/s}
  ,                                       !- Heating Maximum Air Flow per Zone Floor Area {m3/s-m2}
  ,                                       !- Heating Maximum Air Flow {m3/s}
  ,                                       !- Heating Maximum Air Flow Fraction
  No,                                     !- Account for Dedicated Outdoor Air System
  NeutralSupplyAir,                       !- Dedicated Outdoor Air System Control Strategy
  autosize,                               !- Dedicated Outdoor Air Low Setpoint Temperature for Design {C}
  autosize,                               !- Dedicated Outdoor Air High Setpoint Temperature for Design {C}
  Sensible Load Only No Latent Load,      !- Zone Load Sizing Method
  HumidityRatioDifference,                !- Zone Latent Cooling Design Supply Air Humidity Ratio Input Method
  ,                                       !- Zone Dehumidification Design Supply Air Humidity Ratio {kgWater/kgDryAir}
  0.005,                                  !- Zone Cooling Design Supply Air Humidity Ratio Difference {kgWater/kgDryAir}
  HumidityRatioDifference,                !- Zone Latent Heating Design Supply Air Humidity Ratio Input Method
  ,                                       !- Zone Humidification Design Supply Air Humidity Ratio {kgWater/kgDryAir}
  0.005;                                  !- Zone Humidification Design Supply Air Humidity Ratio Difference {kgWater/kgDryAir}

OS:ZoneHVAC:EquipmentList,
  {cb131dbc-1b2d-4d12-9a28-83f525346018}, !- Handle
  Zone HVAC Equipment List 1,             !- Name
  {bff3eb70-c4f0-4a23-8920-767bfabdfe82}; !- Thermal Zone

OS:Space,
  {9d216464-56c4-4ac5-9db4-49d10a449efa}, !- Handle
  Zn1 Space,                              !- Name
  ,                                       !- Space Type Name
  ,                                       !- Default Construction Set Name
  ,                                       !- Default Schedule Set Name
  0,                                      !- Direction of Relative North {deg}
  0,                                      !- X Origin {m}
  0,                                      !- Y Origin {m}
  0,                                      !- Z Origin {m}
  ,                                       !- Building Story Name
  {bff3eb70-c4f0-4a23-8920-767bfabdfe82}; !- Thermal Zone Name

OS:ThermostatSetpoint:DualSetpoint,
  {42abf0cc-fab1-4ecf-b1af-1c7c999a0228}, !- Handle
  Zn1 Tstat Setpt,                        !- Name
  {b92a8cff-4dba-46a7-aebc-3a0276bdcb2f}, !- Heating Setpoint Temperature Schedule Name
  {af445351-9b8d-4cb3-addc-b34c51f0a773}; !- Cooling Setpoint Temperature Schedule Name

OS:Schedule:Constant,
  {b92a8cff-4dba-46a7-aebc-3a0276bdcb2f}, !- Handle
  Htg Setpt,                              !- Name
  {954cccc1-fec9-4357-b871-6e1bd300b531}, !- Schedule Type Limits Name
  21;                                     !- Value

OS:Surface,
  {4a373590-dd32-40da-88bf-d05562c82802}, !- Handle
  Zn1 Ext Slab,                           !- Name
  Floor,                                  !- Surface Type
  {db525802-1bf6-4154-ba5d-3eba80931243}, !- Construction Name
  {9d216464-56c4-4ac5-9db4-49d10a449efa}, !- Space Name
  Ground,                                 !- Outside Boundary Condition
  ,                                       !- Outside Boundary Condition Object
  NoSun,                                  !- Sun Exposure
  NoWind,                                 !- Wind Exposure
  0,                                      !- View Factor to Ground
  ,                                       !- Number of Vertices
  5, 10, -3,                              !- X,Y,Z Vertex 1 {m}
  5, 0, -3,                               !- X,Y,Z Vertex 2 {m}
  0, 0, -3,                               !- X,Y,Z Vertex 3 {m}
  0, 10, -3;                              !- X,Y,Z Vertex 4 {m}

OS:Surface,
  {b8db96d3-6d9d-4abd-8d6d-4ad37816a5fc}, !- Handle
  Zn1 N Fnd Wall,                         !- Name
  Wall,                                   !- Surface Type
  {a9251099-64bb-423f-9763-b8fe10ca6be5}, !- Construction Name
  {9d216464-56c4-4ac5-9db4-49d10a449efa}, !- Space Name
  Ground,                                 !- Outside Boundary Condition
  ,                                       !- Outside Boundary Condition Object
  NoSun,                                  !- Sun Exposure
  NoWind,                                 !- Wind Exposure
  0,                                      !- View Factor to Ground
  ,                                       !- Number of Vertices
  5, 10, 0,                               !- X,Y,Z Vertex 1 {m}
  5, 10, -3,                              !- X,Y,Z Vertex 2 {m}
  0, 10, -3,                              !- X,Y,Z Vertex 3 {m}
  0, 10, 0;                               !- X,Y,Z Vertex 4 {m}

OS:Surface,
  {0d76f8b9-5231-4878-a26d-ecbdc6a325d8}, !- Handle
  Zn1 E Fnd Wall,                         !- Name
  Wall,                                   !- Surface Type
  {a9251099-64bb-423f-9763-b8fe10ca6be5}, !- Construction Name
  {9d216464-56c4-4ac5-9db4-49d10a449efa}, !- Space Name
  Ground,                                 !- Outside Boundary Condition
  ,                                       !- Outside Boundary Condition Object
  NoSun,                                  !- Sun Exposure
  NoWind,                                 !- Wind Exposure
  0,                                      !- View Factor to Ground
  ,                                       !- Number of Vertices
  5, 0, 0,                                !- X,Y,Z Vertex 1 {m}
  5, 0, -3,                               !- X,Y,Z Vertex 2 {m}
  5, 10, -3,                              !- X,Y,Z Vertex 3 {m}
  5, 10, 0;                               !- X,Y,Z Vertex 4 {m}

OS:Surface,
  {d47004ed-bad3-40dc-8ca4-9044db794b99}, !- Handle
  Zn1 S Fnd Wall,                         !- Name
  Wall,                                   !- Surface Type
  {a9251099-64bb-423f-9763-b8fe10ca6be5}, !- Construction Name
  {9d216464-56c4-4ac5-9db4-49d10a449efa}, !- Space Name
  Ground,                                 !- Outside Boundary Condition
  ,                                       !- Outside Boundary Condition Object
  NoSun,                                  !- Sun Exposure
  NoWind,                                 !- Wind Exposure
  0,                                      !- View Factor to Ground
  ,                                       !- Number of Vertices
  0, 0, 0,                                !- X,Y,Z Vertex 1 {m}
  0, 0, -3,                               !- X,Y,Z Vertex 2 {m}
  5, 0, -3,                               !- X,Y,Z Vertex 3 {m}
  5, 0, 0;                                !- X,Y,Z Vertex 4 {m}

OS:Surface,
  {f23022c2-26cb-4c93-9b0d-7f8abbaf2323}, !- Handle
  Zn1 W Fnd Wall,                         !- Name
  Wall,                                   !- Surface Type
  {a9251099-64bb-423f-9763-b8fe10ca6be5}, !- Construction Name
  {9d216464-56c4-4ac5-9db4-49d10a449efa}, !- Space Name
  Ground,                                 !- Outside Boundary Condition
  ,                                       !- Outside Boundary Condition Object
  NoSun,                                  !- Sun Exposure
  NoWind,                                 !- Wind Exposure
  0,                                      !- View Factor to Ground
  ,                                       !- Number of Vertices
  0, 10, 0,                               !- X,Y,Z Vertex 1 {m}
  0, 10, -3,                              !- X,Y,Z Vertex 2 {m}
  0, 0, -3,                               !- X,Y,Z Vertex 3 {m}
  0, 0, 0;                                !- X,Y,Z Vertex 4 {m}

OS:Surface,
  {4c5b39ec-6a14-48bd-9827-a83f9e9ab7f9}, !- Handle
  Zn1 Int Ceil,                           !- Name
  RoofCeiling,                            !- Surface Type
  {32708685-ddd8-45fd-a2d4-47602f5a3944}, !- Construction Name
  {9d216464-56c4-4ac5-9db4-49d10a449efa}, !- Space Name
  Surface,                                !- Outside Boundary Condition
  {874e2a5e-54e0-4c85-b65a-1584a99be090}, !- Outside Boundary Condition Object
  NoSun,                                  !- Sun Exposure
  NoWind,                                 !- Wind Exposure
  0,                                      !- View Factor to Ground
  ,                                       !- Number of Vertices
  5, 0, 0,                                !- X,Y,Z Vertex 1 {m}
  5, 10, 0,                               !- X,Y,Z Vertex 2 {m}
  0, 10, 0,                               !- X,Y,Z Vertex 3 {m}
  0, 0, 0;                                !- X,Y,Z Vertex 4 {m}

OS:ThermalZone,
  {09d89ea8-595c-4428-9a24-5e811b876df7}, !- Handle
  Zn2,                                    !- Name
  1,                                      !- Multiplier
  ,                                       !- Ceiling Height {m}
  ,                                       !- Volume {m3}
  ,                                       !- Floor Area {m2}
  ,                                       !- Zone Inside Convection Algorithm
  ,                                       !- Zone Outside Convection Algorithm
  ,                                       !- Zone Conditioning Equipment List Name
  {89b3d676-1fd0-4880-a85b-7cb5d2e3bcc5}, !- Zone Air Inlet Port List
  {9aa0f986-967f-4e5b-abc9-c0e6b986fbd6}, !- Zone Air Exhaust Port List
  {e99b9ad1-65b1-4251-a5ce-7b1672ca4f6a}, !- Zone Air Node Name
  {6c807d55-8f68-4e83-b9f2-129c42f37098}, !- Zone Return Air Port List
  ,                                       !- Primary Daylighting Control Name
  ,                                       !- Fraction of Zone Controlled by Primary Daylighting Control
  ,                                       !- Secondary Daylighting Control Name
  ,                                       !- Fraction of Zone Controlled by Secondary Daylighting Control
  ,                                       !- Illuminance Map Name
  ,                                       !- Group Rendering Name
  {a68b8000-a8b2-4e10-8473-2ecf4cb6cfd2}, !- Thermostat Name
  No;                                     !- Use Ideal Air Loads

OS:Node,
  {6a2c2d55-38b5-4240-b38b-5e2e4ded00ec}, !- Handle
  Node 2,                                 !- Name
  {e99b9ad1-65b1-4251-a5ce-7b1672ca4f6a}, !- Inlet Port
  ;                                       !- Outlet Port

OS:Connection,
  {e99b9ad1-65b1-4251-a5ce-7b1672ca4f6a}, !- Handle
  {09d89ea8-595c-4428-9a24-5e811b876df7}, !- Source Object
  11,                                     !- Outlet Port
  {6a2c2d55-38b5-4240-b38b-5e2e4ded00ec}, !- Target Object
  2;                                      !- Inlet Port

OS:PortList,
  {89b3d676-1fd0-4880-a85b-7cb5d2e3bcc5}, !- Handle
  {09d89ea8-595c-4428-9a24-5e811b876df7}; !- HVAC Component

OS:PortList,
  {9aa0f986-967f-4e5b-abc9-c0e6b986fbd6}, !- Handle
  {09d89ea8-595c-4428-9a24-5e811b876df7}; !- HVAC Component

OS:PortList,
  {6c807d55-8f68-4e83-b9f2-129c42f37098}, !- Handle
  {09d89ea8-595c-4428-9a24-5e811b876df7}; !- HVAC Component

OS:Sizing:Zone,
  {e34f8b64-e140-4250-a176-6767eb38c2ea}, !- Handle
  {09d89ea8-595c-4428-9a24-5e811b876df7}, !- Zone or ZoneList Name
  SupplyAirTemperature,                   !- Zone Cooling Design Supply Air Temperature Input Method
  14,                                     !- Zone Cooling Design Supply Air Temperature {C}
  11.11,                                  !- Zone Cooling Design Supply Air Temperature Difference {deltaC}
  SupplyAirTemperature,                   !- Zone Heating Design Supply Air Temperature Input Method
  40,                                     !- Zone Heating Design Supply Air Temperature {C}
  11.11,                                  !- Zone Heating Design Supply Air Temperature Difference {deltaC}
  0.0085,                                 !- Zone Cooling Design Supply Air Humidity Ratio {kg-H2O/kg-air}
  0.008,                                  !- Zone Heating Design Supply Air Humidity Ratio {kg-H2O/kg-air}
  ,                                       !- Zone Heating Sizing Factor
  ,                                       !- Zone Cooling Sizing Factor
  DesignDay,                              !- Cooling Design Air Flow Method
  ,                                       !- Cooling Design Air Flow Rate {m3/s}
  ,                                       !- Cooling Minimum Air Flow per Zone Floor Area {m3/s-m2}
  ,                                       !- Cooling Minimum Air Flow {m3/s}
  ,                                       !- Cooling Minimum Air Flow Fraction
  DesignDay,                              !- Heating Design Air Flow Method
  ,                                       !- Heating Design Air Flow Rate {m3/s}
  ,                                       !- Heating Maximum Air Flow per Zone Floor Area {m3/s-m2}
  ,                                       !- Heating Maximum Air Flow {m3/s}
  ,                                       !- Heating Maximum Air Flow Fraction
  No,                                     !- Account for Dedicated Outdoor Air System
  NeutralSupplyAir,                       !- Dedicated Outdoor Air System Control Strategy
  autosize,                               !- Dedicated Outdoor Air Low Setpoint Temperature for Design {C}
  autosize,                               !- Dedicated Outdoor Air High Setpoint Temperature for Design {C}
  Sensible Load Only No Latent Load,      !- Zone Load Sizing Method
  HumidityRatioDifference,                !- Zone Latent Cooling Design Supply Air Humidity Ratio Input Method
  ,                                       !- Zone Dehumidification Design Supply Air Humidity Ratio {kgWater/kgDryAir}
  0.005,                                  !- Zone Cooling Design Supply Air Humidity Ratio Difference {kgWater/kgDryAir}
  HumidityRatioDifference,                !- Zone Latent Heating Design Supply Air Humidity Ratio Input Method
  ,                                       !- Zone Humidification Design Supply Air Humidity Ratio {kgWater/kgDryAir}