
OS:Version,
  {915e0f49-1be8-4c3a-8fb1-9589dc12a0f4}, !- Handle
  2.7.0;                                  !- Version Identifier

OS:SpaceType,
  {902755f6-1415-4019-83c0-8766526525dd}, !- Handle
  RFF Dining - DEER Pre-1975,             !- Name
  ,                                       !- Default Construction Set Name
  {b1968c66-b9e1-4840-97b4-8c9bd4c150c0}, !- Default Schedule Set Name
  ,                                       !- Group Rendering Name
  {67323e61-4fb9-47a8-96dc-3249507008b9}, !- Design Specification Outdoor Air Object Name
  ,                                       !- Standards Template
  RFF,                                    !- Standards Building Type
  Dining;                                 !- Standards Space Type

OS:SpaceType,
  {55e792da-b5f7-4c1c-ba3b-6a5d084e2b20}, !- Handle
  RFF Kitchen - DEER Pre-1975,            !- Name
  ,                                       !- Default Construction Set Name
  {dc77ef0d-d496-4263-8991-a352b5348c7a}, !- Default Schedule Set Name
  ,                                       !- Group Rendering Name
  {bc6d18f8-d610-49ba-b98f-c479dca834c6}, !- Design Specification Outdoor Air Object Name
  ,                                       !- Standards Template
  RFF,                                    !- Standards Building Type
  Kitchen;                                !- Standards Space Type

OS:SpaceType,
  {1133fe9c-d03c-4df4-a493-5395ef3c3d76}, !- Handle
  RFF LobbyWaiting - DEER Pre-1975,       !- Name
  ,                                       !- Default Construction Set Name
  {65984ce7-5c0e-4284-b51b-02d4e9dcbb71}, !- Default Schedule Set Name
  ,                                       !- Group Rendering Name
  {62615a67-8456-44a5-ba3c-d2c581ceef7a}, !- Design Specification Outdoor Air Object Name
  ,                                       !- Standards Template
  RFF,                                    !- Standards Building Type
  LobbyWaiting;                           !- Standards Space Type

OS:SpaceType,
  {f49bad24-f13d-4746-be75-f6e9dc110fcd}, !- Handle
  RFF Restroom - DEER Pre-1975,           !- Name
  ,                                       !- Default Construction Set Name
  {8a623e34-9e48-43a3-99df-b538cabbb281}, !- Default Schedule Set Name
  ,                                       !- Group Rendering Name
  {050e9af8-0318-485d-8aa1-d2fdc0559377}, !- Design Specification Outdoor Air Object Name
  ,                                       !- Standards Template
  RFF,                                    !- Standards Building Type
  Restroom;                               !- Standards Space Type

OS:Building,
  {a3b4808f-4c51-4c4d-bb7a-ed4827664bd5}, !- Handle
  DEER Pre-1975|RFF,                      !- Name
  ,                                       !- Building Sector Type
  ,                                       !- North Axis {deg}
  ,                                       !- Nominal Floor to Floor Height {m}
  ,                                       !- Space Type Name
  {fa86ecea-b663-423a-a268-79de334bad39}, !- Default Construction Set Name
  ,                                       !- Default Schedule Set Name
  ,                                       !- Standards Number of Stories
  ,                                       !- Standards Number of Above Ground Stories
  ,                                       !- Standards Template
  RFF;                                    !- Standards Building Type

OS:Site,
  {12204a9e-5782-4528-947a-bf5568760176}, !- Handle
  Site 1,                                 !- Name
  ,                                       !- Latitude {deg}
  ,                                       !- Longitude {deg}
  ,                                       !- Time Zone {hr}
  ,                                       !- Elevation {m}
  City;                                   !- Terrain

OS:BuildingStory,
  {613e10f4-acdf-4291-a560-21eb4266f92e}, !- Handle
  Story Ground,                           !- Name
  0,                                      !- Nominal Z Coordinate {m}
  3.9624,                                 !- Nominal Floor to Floor Height {m}
  ,                                       !- Default Construction Set Name
  ,                                       !- Default Schedule Set Name
  ;                                       !- Group Rendering Name

OS:Space,
  {c87c3e58-2c69-4da1-9112-16dfb991c2d7}, !- Handle
  RFF Kitchen A  - Story Ground,          !- Name
  {55e792da-b5f7-4c1c-ba3b-6a5d084e2b20}, !- Space Type Name
  ,                                       !- Default Construction Set Name
  ,                                       !- Default Schedule Set Name
  -0,                                     !- Direction of Relative North {deg}
  -6.81212657545351,                      !- X Origin {m}
  -6.81212657545351,                      !- Y Origin {m}
  0,                                      !- Z Origin {m}
  {613e10f4-acdf-4291-a560-21eb4266f92e}, !- Building Story Name
  {9891cf50-f378-4c8b-a235-345a8b248054}; !- Thermal Zone Name

OS:Surface,
  {7fc4b216-cff5-49bb-8f89-e60b1107c127}, !- Handle
  Surface 1,                              !- Name
  Floor,                                  !- Surface Type
  ,                                       !- Construction Name
  {c87c3e58-2c69-4da1-9112-16dfb991c2d7}, !- Space Name
  Ground,                                 !- Outside Boundary Condition
  ,                                       !- Outside Boundary Condition Object
  NoSun,                                  !- Sun Exposure
  NoWind,                                 !- Wind Exposure
  ,                                       !- View Factor to Ground
  ,                                       !- Number of Vertices
  3.5527136788005e-015, 2.66453525910038e-015, 0, !- X,Y,Z Vertex 1 {m}
  3.5527136788005e-015, 4.572, 0,         !- X,Y,Z Vertex 2 {m}
  5.45024628499131, 4.572, 0,             !- X,Y,Z Vertex 3 {m}
  5.45024628499131, 2.66453525910038e-015, 0; !- X,Y,Z Vertex 4 {m}

OS:Surface,
  {e223d1d9-e6f3-400d-940f-954d2587c065}, !- Handle
  Surface 2,                              !- Name
  Wall,                                   !- Surface Type
  ,                                       !- Construction Name
  {c87c3e58-2c69-4da1-9112-16dfb991c2d7}, !- Space Name
  Outdoors,                               !- Outside Boundary Condition
  ,                                       !- Outside Boundary Condition Object
  SunExposed,                             !- Sun Exposure
  WindExposed,                            !- Wind Exposure
  ,                                       !- View Factor to Ground
  ,                                       !- Number of Vertices
  3.5527136788005e-015, 4.572, 3.9624,    !- X,Y,Z Vertex 1 {m}
  3.5527136788005e-015, 4.572, 0,         !- X,Y,Z Vertex 2 {m}
  3.5527136788005e-015, 2.66453525910038e-015, 0, !- X,Y,Z Vertex 3 {m}
  3.5527136788005e-015, 2.66453525910038e-015, 3.9624; !- X,Y,Z Vertex 4 {m}

OS:Surface,
  {b8eeaaa2-d1a7-4b93-b377-7967381eb8b7}, !- Handle
  Surface 3,                              !- Name
  Wall,                                   !- Surface Type
  ,                                       !- Construction Name
  {c87c3e58-2c69-4da1-9112-16dfb991c2d7}, !- Space Name
  Surface,                                !- Outside Boundary Condition
  {e16634e1-8fbe-40ea-aea1-09aeb1f513ab}, !- Outside Boundary Condition Object
  NoSun,                                  !- Sun Exposure
  NoWind,                                 !- Wind Exposure
  ,                                       !- View Factor to Ground
  ,                                       !- Number of Vertices
  5.45024628499131, 4.572, 3.9624,        !- X,Y,Z Vertex 1 {m}
  5.45024628499131, 4.572, 0,             !- X,Y,Z Vertex 2 {m}
  3.5527136788005e-015, 4.572, 0,         !- X,Y,Z Vertex 3 {m}
  3.5527136788005e-015, 4.572, 3.9624;    !- X,Y,Z Vertex 4 {m}

OS:Surface,
  {2b62e7da-7ffc-46a3-8ea8-37c2f55360fb}, !- Handle
  Surface 4,                              !- Name
  Wall,                                   !- Surface Type
  ,                                       !- Construction Name
  {c87c3e58-2c69-4da1-9112-16dfb991c2d7}, !- Space Name
  Surface,                                !- Outside Boundary Condition
  {0ebb5d91-f828-4b77-826d-339af64c52ea}, !- Outside Boundary Condition Object
  NoSun,                                  !- Sun Exposure
  NoWind,                                 !- Wind Exposure
  ,                                       !- View Factor to Ground
  ,                                       !- Number of Vertices
  5.45024628499131, 2.66453525910038e-015, 3.9624, !- X,Y,Z Vertex 1 {m}
  5.45024628499131, 2.66453525910038e-015, 0, !- X,Y,Z Vertex 2 {m}
  5.45024628499131, 4.572, 0,             !- X,Y,Z Vertex 3 {m}
  5.45024628499131, 4.572, 3.9624;        !- X,Y,Z Vertex 4 {m}

OS:Surface,
  {b11b9d2c-2ac1-4603-83da-ecb31b8b2c99}, !- Handle
  Surface 5,                              !- Name
  Wall,                                   !- Surface Type
  ,                                       !- Construction Name
  {c87c3e58-2c69-4da1-9112-16dfb991c2d7}, !- Space Name
  Outdoors,                               !- Outside Boundary Condition
  ,                                       !- Outside Boundary Condition Object
  SunExposed,                             !- Sun Exposure
  WindExposed,                            !- Wind Exposure
  ,                                       !- View Factor to Ground
  ,                                       !- Number of Vertices
  3.5527136788005e-015, 2.66453525910038e-015, 3.9624, !- X,Y,Z Vertex 1 {m}
  3.5527136788005e-015, 2.66453525910038e-015, 0, !- X,Y,Z Vertex 2 {m}
  5.45024628499131, 2.66453525910038e-015, 0, !- X,Y,Z Vertex 3 {m}
  5.45024628499131, 2.66453525910038e-015, 3.9624; !- X,Y,Z Vertex 4 {m}

OS:Surface,
  {55deaa84-9750-487e-a200-640dd6e48a48}, !- Handle
  Surface 6,                              !- Name
  RoofCeiling,                            !- Surface Type
  ,                                       !- Construction Name
  {c87c3e58-2c69-4da1-9112-16dfb991c2d7}, !- Space Name
  Outdoors,                               !- Outside Boundary Condition
  ,                                       !- Outside Boundary Condition Object
  SunExposed,                             !- Sun Exposure
  WindExposed,                            !- Wind Exposure
  ,                                       !- View Factor to Ground
  ,                                       !- Number of Vertices
  5.45024628499131, 2.66453525910038e-015, 3.9624, !- X,Y,Z Vertex 1 {m}
  5.45024628499131, 4.572, 3.9624,        !- X,Y,Z Vertex 2 {m}
  3.5527136788005e-015, 4.572, 3.9624,    !- X,Y,Z Vertex 3 {m}
  3.5527136788005e-015, 2.66453525910038e-015, 3.9624; !- X,Y,Z Vertex 4 {m}

OS:ThermalZone,
  {9891cf50-f378-4c8b-a235-345a8b248054}, !- Handle
  Zone RFF Kitchen A  - Story Ground,     !- Name
  1,                                      !- Multiplier
  ,                                       !- Ceiling Height {m}
  ,                                       !- Volume {m3}
  ,                                       !- Floor Area {m2}
  ,                                       !- Zone Inside Convection Algorithm
  ,                                       !- Zone Outside Convection Algorithm
  ,                                       !- Zone Conditioning Equipment List Name
  {e0e17e55-98e0-4f18-aa9b-4ccfd18d0497}, !- Zone Air Inlet Port List
  {29bc7046-6f83-4bc6-88d8-d9a1631f7a26}, !- Zone Air Exhaust Port List
  {f080d1c1-1998-4c5e-bcd0-dfa9ff86c11e}, !- Zone Air Node Name
  {81599b84-ce19-4c68-b719-10f825b2d124}, !- Zone Return Air Port List
  ,                                       !- Primary Daylighting Control Name
  ,                                       !- Fraction of Zone Controlled by Primary Daylighting Control
  ,                                       !- Secondary Daylighting Control Name
  ,                                       !- Fraction of Zone Controlled by Secondary Daylighting Control
  ,                                       !- Illuminance Map Name
  ,                                       !- Group Rendering Name
  {cbf5f4b9-9f10-455d-9478-3c3a322df11d}, !- Thermostat Name
  No;                                     !- Use Ideal Air Loads

OS:Node,
  {37412e5e-abee-4763-8c6c-a680b4290dbe}, !- Handle
  Zone RFF Kitchen A  - Story Ground Zone Air Node, !- Name
  {f080d1c1-1998-4c5e-bcd0-dfa9ff86c11e}, !- Inlet Port
  ;                                       !- Outlet Port

OS:Connection,
  {f080d1c1-1998-4c5e-bcd0-dfa9ff86c11e}, !- Handle
  {609451ed-686e-4db5-b6b8-bdba56c99367}, !- Name
  {9891cf50-f378-4c8b-a235-345a8b248054}, !- Source Object
  11,                                     !- Outlet Port
  {37412e5e-abee-4763-8c6c-a680b4290dbe}, !- Target Object
  2;                                      !- Inlet Port

OS:PortList,
  {e0e17e55-98e0-4f18-aa9b-4ccfd18d0497}, !- Handle
  {2eec4595-6f77-45e1-81b8-97d80b441e6e}, !- Name
  {9891cf50-f378-4c8b-a235-345a8b248054}, !- HVAC Component
  {e24eb0d9-47e3-42e0-8247-7114259ff06f}; !- Port 1

OS:PortList,
  {29bc7046-6f83-4bc6-88d8-d9a1631f7a26}, !- Handle
  {1753f61a-65c4-4409-8eab-7ab538ee5d74}, !- Name
  {9891cf50-f378-4c8b-a235-345a8b248054}, !- HVAC Component
  {a5cb253c-977e-46bc-aa02-09a02d520bd5}; !- Port 1

OS:PortList,
  {81599b84-ce19-4c68-b719-10f825b2d124}, !- Handle
  {e75bccb3-1203-4fba-b0c8-2a3547efe39e}, !- Name
  {9891cf50-f378-4c8b-a235-345a8b248054}, !- HVAC Component
  {5307a4f9-b496-43b7-9385-9ce9a3a2eb38}; !- Port 1

OS:Sizing:Zone,
  {2af056ff-37b7-473b-bdae-d60dca651c3b}, !- Handle
  {9891cf50-f378-4c8b-a235-345a8b248054}, !- Zone or ZoneList Name
  SupplyAirTemperature,                   !- Zone Cooling Design Supply Air Temperature Input Method
  12.7777777777778,                       !- Zone Cooling Design Supply Air Temperature {C}
  11.11,                                  !- Zone Cooling Design Supply Air Temperature Difference {deltaC}
  SupplyAirTemperature,                   !- Zone Heating Design Supply Air Temperature Input Method
  50.0000000000001,                       !- Zone Heating Design Supply Air Temperature {C}
  11.11,                                  !- Zone Heating Design Supply Air Temperature Difference {deltaC}
  0.0085,                                 !- Zone Cooling Design Supply Air Humidity Ratio {kg-H2O/kg-air}
  0.008,                                  !- Zone Heating Design Supply Air Humidity Ratio {kg-H2O/kg-air}
  ,                                       !- Zone Heating Sizing Factor
  ,                                       !- Zone Cooling Sizing Factor
  DesignDay,                              !- Cooling Design Air Flow Method
  ,                                       !- Cooling Design Air Flow Rate {m3/s}
  ,                                       !- Cooling Minimum Air Flow per Zone Floor Area {m3/s-m2}
  ,                                       !- Cooling Minimum Air Flow {m3/s}
  ,                                       !- Cooling Minimum Air Flow Fraction
  DesignDay,                              !- Heating Design Air Flow Method
  ,                                       !- Heating Design Air Flow Rate {m3/s}
  ,                                       !- Heating Maximum Air Flow per Zone Floor Area {m3/s-m2}
  ,                                       !- Heating Maximum Air Flow {m3/s}
  ,                                       !- Heating Maximum Air Flow Fraction
  ,                                       !- Design Zone Air Distribution Effectiveness in Cooling Mode
  ,                                       !- Design Zone Air Distribution Effectiveness in Heating Mode
  No,                                     !- Account for Dedicated Outdoor Air System
  NeutralSupplyAir,                       !- Dedicated Outdoor Air System Control Strategy
  autosize,                               !- Dedicated Outdoor Air Low Setpoint Temperature for Design {C}
  autosize;                               !- Dedicated Outdoor Air High Setpoint Temperature for Design {C}

OS:ZoneHVAC:EquipmentList,
  {bb518d12-a75c-4da5-958a-d7d12ed2d892}, !- Handle
  Zone RFF Kitchen A  - Story Ground Zone HVAC Equipment List, !- Name
  {9891cf50-f378-4c8b-a235-345a8b248054}, !- Thermal Zone
  ,                                       !- Load Distribution Scheme
  {7d016d0a-a5d3-4f52-9f1c-99120090d707}, !- Zone Equipment 1
  1,                                      !- Zone Equipment Cooling Sequence 1
  1,                                      !- Zone Equipment Heating or No-Load Sequence 1
  {278ed0b8-95b3-4544-9f7c-febe17769027}, !- Zone Equipment 2
  2,                                      !- Zone Equipment Cooling Sequence 2
  2;                                      !- Zone Equipment Heating or No-Load Sequence 2

OS:Space,
  {e87f920d-a347-47ce-bced-b98507d63956}, !- Handle
  RFF Kitchen B  - Story Ground,          !- Name
  {55e792da-b5f7-4c1c-ba3b-6a5d084e2b20}, !- Space Type Name
  ,                                       !- Default Construction Set Name
  ,                                       !- Default Schedule Set Name
  -0,                                     !- Direction of Relative North {deg}
  -6.81212657545351,                      !- X Origin {m}
  -2.24012657545351,                      !- Y Origin {m}
  0,                                      !- Z Origin {m}
  {613e10f4-acdf-4291-a560-21eb4266f92e}, !- Building Story Name
  {a95d3e0d-1c9b-4418-b23b-6634ce22597c}; !- Thermal Zone Name

OS:Surface,
  {395649be-87ed-4211-b2a0-4a27cb084a78}, !- Handle
  Surface 7,                              !- Name
  Floor,                                  !- Surface Type
  ,                                       !- Construction Name
  {e87f920d-a347-47ce-bced-b98507d63956}, !- Space Name
  Ground,                                 !- Outside Boundary Condition
  ,                                       !- Outside Boundary Condition Object
  NoSun,                                  !- Sun Exposure
  NoWind,                                 !- Wind Exposure
  ,                                       !- View Factor to Ground
  ,                                       !- Number of Vertices
  3.5527136788005e-015, 2.66453525910038e-015, 0, !- X,Y,Z Vertex 1 {m}
  3.5527136788005e-015, 4.48025315090702, 0, !- X,Y,Z Vertex 2 {m}
  5.45024628499131, 4.48025315090702, 0,  !- X,Y,Z Vertex 3 {m}
  5.45024628499131, 2.66453525910038e-015, 0; !- X,Y,Z Vertex 4 {m}

OS:Surface,
  {4e9e7cf0-5342-419a-a11c-d54052a151b9}, !- Handle
  Surface 8,                              !- Name
  Wall,                                   !- Surface Type
  ,                                       !- Construction Name
  {e87f920d-a347-47ce-bced-b98507d63956}, !- Space Name
  Outdoors,                               !- Outside Boundary Condition
  ,                                       !- Outside Boundary Condition Object
  SunExposed,                             !- Sun Exposure
  WindExposed,                            !- Wind Exposure
  ,                                       !- View Factor to Ground
  ,                                       !- Number of Vertices
  3.5527136788005e-015, 4.48025315090702, 3.9624, !- X,Y,Z Vertex 1 {m}
  3.5527136788005e-015, 4.48025315090702, 0, !- X,Y,Z Vertex 2 {m}
  3.5527136788005e-015, 2.66453525910038e-015, 0, !- X,Y,Z Vertex 3 {m}
  3.5527136788005e-015, 2.66453525910038e-015, 3.9624; !- X,Y,Z Vertex 4 {m}

OS:Surface,
  {1325c186-0ed4-445d-995d-03871761791d}, !- Handle
  Surface 9,                              !- Name
  Wall,                                   !- Surface Type
  ,                                       !- Construction Name
  {e87f920d-a347-47ce-bced-b98507d63956}, !- Space Name
  Surface,                                !- Outside Boundary Condition
  {d4e1f2e7-ad0c-4fc2-acd0-6cf5a597cd97}, !- Outside Boundary Condition Object
  NoSun,                                  !- Sun Exposure
  NoWind,                                 !- Wind Exposure
  ,                                       !- View Factor to Ground
  ,                                       !- Number of Vertices
  5.45024628499131, 4.48025315090702, 3.9624, !- X,Y,Z Vertex 1 {m}
  5.45024628499131, 4.48025315090702, 0,  !- X,Y,Z Vertex 2 {m}
  3.5527136788005e-015, 4.48025315090702, 0, !- X,Y,Z Vertex 3 {m}
  3.5527136788005e-015, 4.48025315090702, 3.9624; !- X,Y,Z Vertex 4 {m}

OS:Surface,
  {0e358de9-e3f7-48eb-b8e3-c09d8b16179d}, !- Handle
  Surface 10,                             !- Name
  Wall,                                   !- Surface Type
  ,                                       !- Construction Name
  {e87f920d-a347-47ce-bced-b98507d63956}, !- Space Name
  Surface,                                !- Outside Boundary Condition
  {86268f2c-08b8-4392-8d61-978b13dfbc6d}, !- Outside Boundary Condition Object
  NoSun,                                  !- Sun Exposure
  NoWind,                                 !- Wind Exposure
  ,                                       !- View Factor to Ground
  ,                                       !- Number of Vertices
  5.45024628499131, 2.66453525910038e-015, 3.9624, !- X,Y,Z Vertex 1 {m}
  5.45024628499131, 2.66453525910038e-015, 0, !- X,Y,Z Vertex 2 {m}
  5.45024628499131, 4.48025315090702, 0,  !- X,Y,Z Vertex 3 {m}
  5.45024628499131, 4.48025315090702, 3.9624; !- X,Y,Z Vertex 4 {m}

OS:Surface,
  {e16634e1-8fbe-40ea-aea1-09aeb1f513ab}, !- Handle
  Surface 11,                             !- Name
  Wall,                                   !- Surface Type
  ,                                       !- Construction Name
  {e87f920d-a347-47ce-bced-b98507d63956}, !- Space Name
  Surface,                                !- Outside Boundary Condition
  {b8eeaaa2-d1a7-4b93-b377-7967381eb8b7}, !- Outside Boundary Condition Object
  NoSun,                                  !- Sun Exposure
  NoWind,                                 !- Wind Exposure
  ,                                       !- View Factor to Ground
  ,                                       !- Number of Vertices
  3.5527136788005e-015, 2.66453525910038e-015, 3.9624, !- X,Y,Z Vertex 1 {m}
  3.5527136788005e-015, 2.66453525910038e-015, 0, !- X,Y,Z Vertex 2 {m}
  5.45024628499131, 2.66453525910038e-015, 0, !- X,Y,Z Vertex 3 {m}
  5.45024628499131, 2.66453525910038e-015, 3.9624; !- X,Y,Z Vertex 4 {m}

OS:Surface,
  {a8e10d0b-b6e1-4484-82bd-c9beea897abc}, !- Handle
  Surface 12,                             !- Name
  RoofCeiling,                            !- Surface Type
  ,                                       !- Construction Name
  {e87f920d-a347-47ce-bced-b98507d63956}, !- Space Name
  Outdoors,                               !- Outside Boundary Condition
  ,                                       !- Outside Boundary Condition Object
  SunExposed,                             !- Sun Exposure
  WindExposed,                            !- Wind Exposure
  ,                                       !- View Factor to Ground
  ,                                       !- Number of Vertices
  5.45024628499131, 2.66453525910038e-015, 3.9624, !- X,Y,Z Vertex 1 {m}
  5.45024628499131, 4.48025315090702, 3.9624, !- X,Y,Z Vertex 2 {m}
  3.5527136788005e-015, 4.48025315090702, 3.9624, !- X,Y,Z Vertex 3 {m}
  3.5527136788005e-015, 2.66453525910038e-015, 3.9624; !- X,Y,Z Vertex 4 {m}

OS:ThermalZone,
  {a95d3e0d-1c9b-4418-b23b-6634ce22597c}, !- Handle
  Zone RFF Kitchen B  - Story Ground,     !- Name
  1,                                      !- Multiplier
  ,                                       !- Ceiling Height {m}
  ,                                       !- Volume {m3}
  ,                                       !- Floor Area {m2}
  ,                                       !- Zone Inside Convection Algorithm
  ,                                       !- Zone Outside Convection Algorithm
  ,                                       !- Zone Conditioning Equipment List Name
  {390965f9-48d9-4301-b61e-3e10830aff33}, !- Zone Air Inlet Port List
  {cae12355-a32d-4034-804a-7fa672a34459}, !- Zone Air Exhaust Port List
  {3362c90e-dc9b-4ea2-8a2d-46833c579bdb}, !- Zone Air Node Name
  {a388cb7b-240b-4340-b69a-98bfe5c5e6d7}, !- Zone Return Air Port List
  ,                                       !- Primary Daylighting Control Name
  ,                                       !- Fraction of Zone Controlled by Primary Daylighting Control
  ,                                       !- Secondary Daylighting Control Name
  ,                                       !- Fraction of Zone Controlled by Secondary Daylighting Control
  ,                                       !- Illuminance Map Name
  ,                                       !- Group Rendering Name
  {e20f6b8d-ef60-4544-83eb-c66ef11a5847}, !- Thermostat Name
  No;                                     !- Use Ideal Air Loads

OS:Node,
  {b33782ad-c99a-476f-bac6-7c54f999239d}, !- Handle
  Zone RFF Kitchen B  - Story Ground Zone Air Node, !- Name
  {3362c90e-dc9b-4ea2-8a2d-46833c579bdb}, !- Inlet Port
  ;                                       !- Outlet Port

OS:Connection,
  {3362c90e-dc9b-4ea2-8a2d-46833c579bdb}, !- Handle
  {364c8c4f-cae6-4917-860d-f95b2336ed61}, !- Name
  {a95d3e0d-1c9b-4418-b23b-6634ce22597c}, !- Source Object
  11,                                     !- Outlet Port
  {b33782ad-c99a-476f-bac6-7c54f999239d}, !- Target Object
  2;                                      !- Inlet Port

OS:PortList,
  {390965f9-48d9-4301-b61e-3e10830aff33}, !- Handle
  {e847a998-ca7b-406f-89c7-17e52f9f2d87}, !- Name
  {a95d3e0d-1c9b-4418-b23b-6634ce22597c}, !- HVAC Component
  {6a4cd277-0d0f-480c-a2b6-3503d1385b5c}; !- Port 1

OS:PortList,
  {cae12355-a32d-4034-804a-7fa672a34459}, !- Handle
  {fb7750fb-4087-488e-a2ef-4f20aa77422a}, !- Name
  {a95d3e0d-1c9b-4418-b23b-6634ce22597c}, !- HVAC Component
  {636af818-94e3-49d5-906d-16d181a5e660}; !- Port 1

OS:PortList,
  {a388cb7b-240b-4340-b69a-98bfe5c5e6d7}, !- Handle
  {a7412304-5618-4597-9ed4-e8db8f890104}, !- Name
  {a95d3e0d-1c9b-4418-b23b-6634ce22597c}, !- HVAC Component
  {c2a5dbf5-dbee-443e-ab0e-7cd4d9008b47}; !- Port 1

OS:Sizing:Zone,
  {ad6322e3-1c74-4308-a6c9-3878aeaf7005}, !- Handle
  {a95d3e0d-1c9b-4418-b23b-6634ce22597c}, !- Zone or ZoneList Name
  SupplyAirTemperature,                   !- Zone Cooling Design Supply Air Temperature Input Method
  12.7777777777778,                       !- Zone Cooling Design Supply Air Temperature {C}
  11.11,                                  !- Zone Cooling Design Supply Air Temperature Difference {deltaC}
  SupplyAirTemperature,                   !- Zone Heating Design Supply Air Temperature Input Method
  50.0000000000001,                       !- Zone Heating Design Supply Air Temperature {C}
  11.11,                                  !- Zone Heating Design Supply Air Temperature Difference {deltaC}
  0.0085,                                 !- Zone Cooling Design Supply Air Humidity Ratio {kg-H2O/kg-air}
  0.008,                                  !- Zone Heating Design Supply Air Humidity Ratio {kg-H2O/kg-air}
  ,                                       !- Zone Heating Sizing Factor
  ,                                       !- Zone Cooling Sizing Factor
  DesignDay,                              !- Cooling Design Air Flow Method
  ,                                       !- Cooling Design Air Flow Rate {m3/s}
  ,                                       !- Cooling Minimum Air Flow per Zone Floor Area {m3/s-m2}
  ,                                       !- Cooling Minimum Air Flow {m3/s}
  ,                                       !- Cooling Minimum Air Flow Fraction
  DesignDay,                              !- Heating Design Air Flow Method
  ,                                       !- Heating Design Air Flow Rate {m3/s}
  ,                                       !- Heating Maximum Air Flow per Zone Floor Area {m3/s-m2}
  ,                                       !- Heating Maximum Air Flow {m3/s}
  ,                                       !- Heating Maximum Air Flow Fraction
  ,                                       !- Design Zone Air Distribution Effectiveness in Cooling Mode
  ,                                       !- Design Zone Air Distribution Effectiveness in Heating Mode
  No,                                     !- Account for Dedicated Outdoor Air System
  NeutralSupplyAir,                       !- Dedicated Outdoor Air System Control Strategy
  autosize,                               !- Dedicated Outdoor Air Low Setpoint Temperature for Design {C}
  autosize;                               !- Dedicated Outdoor Air High Setpoint Temperature for Design {C}

OS:ZoneHVAC:EquipmentList,
  {6d7bd8af-7a3e-4a7e-a19f-c316cb29fae0}, !- Handle
  Zone RFF Kitchen B  - Story Ground Zone HVAC Equipment List, !- Name
  {a95d3e0d-1c9b-4418-b23b-6634ce22597c}, !- Thermal Zone
  ,                                       !- Load Distribution Scheme
  {514edbfb-4f3e-4c1d-8e01-ef843fd8602e}, !- Zone Equipment 1
  1,                                      !- Zone Equipment Cooling Sequence 1
  1,                                      !- Zone Equipment Heating or No-Load Sequence 1
  {b85fe4be-5a5f-41e1-b670-e344ec8faf37}, !- Zone Equipment 2
  2,                                      !- Zone Equipment Cooling Sequence 2
  2;                                      !- Zone Equipment Heating or No-Load Sequence 2

OS:Space,
  {5695cc17-5631-41e2-a16c-13888e63da96}, !- Handle
  RFF Kitchen C  - Story Ground,          !- Name
  {55e792da-b5f7-4c1c-ba3b-6a5d084e2b20}, !- Space Type Name
  ,                                       !- Default Construction Set Name
  ,                                       !- Default Schedule Set Name
  -0,                                     !- Direction of Relative North {deg}
  -6.81212657545351,                      !- X Origin {m}
  2.24012657545351,                       !- Y Origin {m}
  0,                                      !- Z Origin {m}