
Version,
  23.2;                                   !- Version Identifier

Timestep,
  4;                                      !- Number of Timesteps per Hour

LifeCycleCost:Parameters,
  Life Cycle Cost Parameters,             !- Name
  EndOfYear,                              !- Discounting Convention
  ConstantDollar,                         !- Inflation Approach
  0.03,                                   !- Real Discount Rate
  ,                                       !- Nominal Discount Rate
  ,                                       !- Inflation
  ,                                       !- Base Date Month
  2011,                                   !- Base Date Year
  ,                                       !- Service Date Month
  2011,                                   !- Service Date Year
  25,                                     !- Length of Study Period in Years
  ,                                       !- Tax rate
  None;                                   !- Depreciation Method

LifeCycleCost:UsePriceEscalation,
  U.S. Avg  Commercial-Electricity,       !- Name
  Electricity,                            !- Resource
  2011,                                   !- Escalation Start Year
  January,                                !- Escalation Start Month
  0.9838,                                 !- Year Escalation 1
  0.9730,                                 !- Year Escalation 2
  0.9632,                                 !- Year Escalation 3
  0.9611,                                 !- Year Escalation 4
  0.9571,                                 !- Year Escalation 5
  0.9553,                                 !- Year Escalation 6
  0.9539,                                 !- Year Escalation 7
  0.9521,                                 !- Year Escalation 8
  0.9546,                                 !- Year Escalation 9
  0.9550,                                 !- Year Escalation 10
  0.9553,                                 !- Year Escalation 11
  0.9564,                                 !- Year Escalation 12
  0.9575,                                 !- Year Escalation 13
  0.9596,                                 !- Year Escalation 14
  0.9618,                                 !- Year Escalation 15
  0.9614,                                 !- Year Escalation 16
  0.9618,                                 !- Year Escalation 17
  0.9618,                                 !- Year Escalation 18
  0.9593,                                 !- Year Escalation 19
  0.9589,                                 !- Year Escalation 20
  0.9607,                                 !- Year Escalation 21
  0.9625,                                 !- Year Escalation 22
  0.9650,                                 !- Year Escalation 23
  0.9708,                                 !- Year Escalation 24
  0.9751,                                 !- Year Escalation 25
  0.9762,                                 !- Year Escalation 26
  0.9766,                                 !- Year Escalation 27
  0.9766,                                 !- Year Escalation 28
  0.9769,                                 !- Year Escalation 29
  0.9773;                                 !- Year Escalation 30

LifeCycleCost:UsePriceEscalation,
  U.S. Avg  Commercial-Distillate Oil,    !- Name
  FuelOilNo1,                             !- Resource
  2011,                                   !- Escalation Start Year
  January,                                !- Escalation Start Month
  0.9714,                                 !- Year Escalation 1
  0.9730,                                 !- Year Escalation 2
  0.9942,                                 !- Year Escalation 3
  1.0164,                                 !- Year Escalation 4
  1.0541,                                 !- Year Escalation 5
  1.0928,                                 !- Year Escalation 6
  1.1267,                                 !- Year Escalation 7
  1.1580,                                 !- Year Escalation 8
  1.1792,                                 !- Year Escalation 9
  1.1967,                                 !- Year Escalation 10
  1.2200,                                 !- Year Escalation 11
  1.2333,                                 !- Year Escalation 12
  1.2566,                                 !- Year Escalation 13
  1.2709,                                 !- Year Escalation 14
  1.2826,                                 !- Year Escalation 15
  1.2985,                                 !- Year Escalation 16
  1.3102,                                 !- Year Escalation 17
  1.3250,                                 !- Year Escalation 18
  1.3261,                                 !- Year Escalation 19
  1.3282,                                 !- Year Escalation 20
  1.3324,                                 !- Year Escalation 21
  1.3356,                                 !- Year Escalation 22
  1.3431,                                 !- Year Escalation 23
  1.3510,                                 !- Year Escalation 24
  1.3568,                                 !- Year Escalation 25
  1.3606,                                 !- Year Escalation 26
  1.3637,                                 !- Year Escalation 27
  1.3674,                                 !- Year Escalation 28
  1.3706,                                 !- Year Escalation 29
  1.3743;                                 !- Year Escalation 30

LifeCycleCost:UsePriceEscalation,
  U.S. Avg  Commercial-Residual Oil,      !- Name
  FuelOilNo2,                             !- Resource
  2011,                                   !- Escalation Start Year
  January,                                !- Escalation Start Month
  0.8469,                                 !- Year Escalation 1
  0.8257,                                 !- Year Escalation 2
  0.8681,                                 !- Year Escalation 3
  0.8988,                                 !- Year Escalation 4
  0.9289,                                 !- Year Escalation 5
  0.9604,                                 !- Year Escalation 6
  0.9897,                                 !- Year Escalation 7
  1.0075,                                 !- Year Escalation 8
  1.0314,                                 !- Year Escalation 9
  1.0554,                                 !- Year Escalation 10
  1.0861,                                 !- Year Escalation 11
  1.1278,                                 !- Year Escalation 12
  1.1497,                                 !- Year Escalation 13
  1.1620,                                 !- Year Escalation 14
  1.1743,                                 !- Year Escalation 15
  1.1852,                                 !- Year Escalation 16
  1.1948,                                 !- Year Escalation 17
  1.2037,                                 !- Year Escalation 18
  1.2071,                                 !- Year Escalation 19
  1.2119,                                 !- Year Escalation 20
  1.2139,                                 !- Year Escalation 21
  1.2194,                                 !- Year Escalation 22
  1.2276,                                 !- Year Escalation 23
  1.2365,                                 !- Year Escalation 24
  1.2420,                                 !- Year Escalation 25
  1.2461,                                 !- Year Escalation 26
  1.2509,                                 !- Year Escalation 27
  1.2550,                                 !- Year Escalation 28
  1.2591,                                 !- Year Escalation 29
  1.2638;                                 !- Year Escalation 30

LifeCycleCost:UsePriceEscalation,
  U.S. Avg  Commercial-Natural gas,       !- Name
  NaturalGas,                             !- Resource
  2011,                                   !- Escalation Start Year
  January,                                !- Escalation Start Month
  0.9823,                                 !- Year Escalation 1
  0.9557,                                 !- Year Escalation 2
  0.9279,                                 !- Year Escalation 3
  0.9257,                                 !- Year Escalation 4
  0.9346,                                 !- Year Escalation 5
  0.9412,                                 !- Year Escalation 6
  0.9512,                                 !- Year Escalation 7
  0.9645,                                 !- Year Escalation 8
  0.9856,                                 !- Year Escalation 9
  1.0067,                                 !- Year Escalation 10
  1.0222,                                 !- Year Escalation 11
  1.0410,                                 !- Year Escalation 12
  1.0610,                                 !- Year Escalation 13
  1.0787,                                 !- Year Escalation 14
  1.0942,                                 !- Year Escalation 15
  1.1098,                                 !- Year Escalation 16
  1.1220,                                 !- Year Escalation 17
  1.1308,                                 !- Year Escalation 18
  1.1386,                                 !- Year Escalation 19
  1.1486,                                 !- Year Escalation 20
  1.1619,                                 !- Year Escalation 21
  1.1763,                                 !- Year Escalation 22
  1.1918,                                 !- Year Escalation 23
  1.2118,                                 !- Year Escalation 24
  1.2284,                                 !- Year Escalation 25
  1.2439,                                 !- Year Escalation 26
  1.2605,                                 !- Year Escalation 27
  1.2772,                                 !- Year Escalation 28
  1.2938,                                 !- Year Escalation 29
  1.3115;                                 !- Year Escalation 30

LifeCycleCost:UsePriceEscalation,
  U.S. Avg  Commercial-Coal,              !- Name
  Coal,                                   !- Resource
  2011,                                   !- Escalation Start Year
  January,                                !- Escalation Start Month
  0.9970,                                 !- Year Escalation 1
  1.0089,                                 !- Year Escalation 2
  1.0089,                                 !- Year Escalation 3
  0.9941,                                 !- Year Escalation 4
  0.9941,                                 !- Year Escalation 5
  1.0000,                                 !- Year Escalation 6
  1.0030,                                 !- Year Escalation 7
  1.0059,                                 !- Year Escalation 8
  1.0089,                                 !- Year Escalation 9
  1.0119,                                 !- Year Escalation 10
  1.0148,                                 !- Year Escalation 11
  1.0178,                                 !- Year Escalation 12
  1.0208,                                 !- Year Escalation 13
  1.0267,                                 !- Year Escalation 14
  1.0297,                                 !- Year Escalation 15
  1.0356,                                 !- Year Escalation 16
  1.0415,                                 !- Year Escalation 17
  1.0534,                                 !- Year Escalation 18
  1.0564,                                 !- Year Escalation 19
  1.0593,                                 !- Year Escalation 20
  1.0653,                                 !- Year Escalation 21
  1.0712,                                 !- Year Escalation 22
  1.0742,                                 !- Year Escalation 23
  1.0801,                                 !- Year Escalation 24
  1.0831,                                 !- Year Escalation 25
  1.0831,                                 !- Year Escalation 26
  1.0861,                                 !- Year Escalation 27
  1.0890,                                 !- Year Escalation 28
  1.0920,                                 !- Year Escalation 29
  1.0950;                                 !- Year Escalation 30

Building,
  ComStock DOE Ref Pre-1980|LargeOffice,  !- Name
  90,                                     !- North Axis {deg}
  City,                                   !- Terrain
  ,                                       !- Loads Convergence Tolerance Value {W}
  ,                                       !- Temperature Convergence Tolerance Value {deltaC}
  ,                                       !- Solar Distribution
  ,                                       !- Maximum Number of Warmup Days
  ;                                       !- Minimum Number of Warmup Days

Zone,
  Zone Office WholeBuilding - Lg Office  - Story Ground, !- Name
  -0,                                     !- Direction of Relative North {deg}
  -2.63964543073497,                      !- X Origin {m}
  -1.31982271536748,                      !- Y Origin {m}
  0,                                      !- Z Origin {m}
  ,                                       !- Type
  1,                                      !- Multiplier
  ,                                       !- Ceiling Height {m}
  ,                                       !- Volume {m3}
  ,                                       !- Floor Area {m2}
  ,                                       !- Zone Inside Convection Algorithm
  ,                                       !- Zone Outside Convection Algorithm
  Yes;                                    !- Part of Total Floor Area

Space,
  Office WholeBuilding - Lg Office  - Story Ground, !- Name
  Zone Office WholeBuilding - Lg Office  - Story Ground, !- Zone Name
  ,                                       !- Ceiling Height {m}
  ,                                       !- Volume {m3}
  ,                                       !- Floor Area {m2}
  Office WholeBuilding - Lg Office - ComStock DOE Ref Pre-1980; !- Space Type

SpaceList,
  Office WholeBuilding - Lg Office - ComStock DOE Ref Pre-1980, !- Name
  Office WholeBuilding - Lg Office  - Story Mid, !- Space Name 1
  Office WholeBuilding - Lg Office  - Story Mid3, !- Space Name 2
  Office WholeBuilding - Lg Office  - Story Mid4, !- Space Name 3
  Office WholeBuilding - Lg Office  - Story Mid5, !- Space Name 4
  Office WholeBuilding - Lg Office  - Story Mid16, !- Space Name 5
  Office WholeBuilding - Lg Office  - Story Ground, !- Space Name 6
  Office WholeBuilding - Lg Office  - Story Mid18, !- Space Name 7
  Office WholeBuilding - Lg Office  - Story Mid17, !- Space Name 8
  Office WholeBuilding - Lg Office  - Story Mid2, !- Space Name 9
  Office WholeBuilding - Lg Office  - Story Mid11, !- Space Name 10
  Office WholeBuilding - Lg Office  - Story Mid15, !- Space Name 11
  Office WholeBuilding - Lg Office  - Story Mid14, !- Space Name 12
  Office WholeBuilding - Lg Office  - Story Mid13, !- Space Name 13
  Office WholeBuilding - Lg Office  - Story Mid12, !- Space Name 14
  Office WholeBuilding - Lg Office  - Story Mid10, !- Space Name 15
  Office WholeBuilding - Lg Office  - Story Mid9, !- Space Name 16
  Office WholeBuilding - Lg Office  - Story Mid8, !- Space Name 17
  Office WholeBuilding - Lg Office  - Story Mid6, !- Space Name 18
  Office WholeBuilding - Lg Office  - Story Top, !- Space Name 19
  Office WholeBuilding - Lg Office  - Story Mid7; !- Space Name 20

Lights,
  Office WholeBuilding - Lg Office - ComStock DOE Ref Pre-1980 General Lighting, !- Name
  Office WholeBuilding - Lg Office - ComStock DOE Ref Pre-1980, !- Zone or ZoneList or Space or SpaceList Name
  Office BLDG_LIGHT_EndUseData BPR Adjusted, !- Schedule Name
  Watts/Area,                             !- Design Level Calculation Method
  ,                                       !- Lighting Level {W}
  4.61388265331636,                       !- Watts per Zone Floor Area {W/m2}
  ,                                       !- Watts per Person {W/person}
  0,                                      !- Return Air Fraction
  0.365,                                  !- Fraction Radiant
  0.2,                                    !- Fraction Visible
  1,                                      !- Fraction Replaceable
  General;                                !- End-Use Subcategory

ScheduleTypeLimits,
  Fractional,                             !- Name
  0,                                      !- Lower Limit Value {BasedOnField A3}
  1,                                      !- Upper Limit Value {BasedOnField A3}
  Continuous;                             !- Numeric Type

Schedule:Day:Interval,
  Office BLDG_LIGHT_EndUseData Default 1, !- Name
  Fractional,                             !- Schedule Type Limits Name
  No,                                     !- Interpolate to Timestep
  00:15,                                  !- Time 1 {hh:mm}
  0,                                      !- Value Until Time 1
  00:30,                                  !- Time 2 {hh:mm}
  0.198452191674879,                      !- Value Until Time 2
  00:45,                                  !- Time 3 {hh:mm}
  0.220366720239982,                      !- Value Until Time 3
  01:00,                                  !- Time 4 {hh:mm}
  0.242281248805085,                      !- Value Until Time 4
  01:15,                                  !- Time 5 {hh:mm}
  0.264195777370188,                      !- Value Until Time 5
  01:30,                                  !- Time 6 {hh:mm}
  0.28611030593529,                       !- Value Until Time 6
  01:45,                                  !- Time 7 {hh:mm}
  0.308024834500393,                      !- Value Until Time 7
  02:00,                                  !- Time 8 {hh:mm}
  0.329939363065496,                      !- Value Until Time 8
  02:15,                                  !- Time 9 {hh:mm}
  0.351853891630598,                      !- Value Until Time 9
  02:30,                                  !- Time 10 {hh:mm}
  0.373768420195701,                      !- Value Until Time 10
  02:45,                                  !- Time 11 {hh:mm}
  0.395682948760804,                      !- Value Until Time 11
  03:00,                                  !- Time 12 {hh:mm}
  0.417597477325906,                      !- Value Until Time 12
  03:15,                                  !- Time 13 {hh:mm}
  0.439512005891009,                      !- Value Until Time 13
  03:30,                                  !- Time 14 {hh:mm}
  0.461426534456112,                      !- Value Until Time 14
  03:45,                                  !- Time 15 {hh:mm}
  0.483341063021214,                      !- Value Until Time 15
  04:00,                                  !- Time 16 {hh:mm}
  0.505255591586317,                      !- Value Until Time 16
  04:15,                                  !- Time 17 {hh:mm}
  0.52717012015142,                       !- Value Until Time 17
  04:30,                                  !- Time 18 {hh:mm}
  0.587714221310009,                      !- Value Until Time 18
  04:45,                                  !- Time 19 {hh:mm}
  0.648258322468599,                      !- Value Until Time 19
  05:00,                                  !- Time 20 {hh:mm}
  0.708802423627189,                      !- Value Until Time 20
  05:15,                                  !- Time 21 {hh:mm}
  0.769346524785779,                      !- Value Until Time 21
  05:30,                                  !- Time 22 {hh:mm}
  0.787731474343398,                      !- Value Until Time 22
  05:45,                                  !- Time 23 {hh:mm}
  0.806116423901017,                      !- Value Until Time 23
  06:00,                                  !- Time 24 {hh:mm}
  0.824501373458636,                      !- Value Until Time 24
  06:15,                                  !- Time 25 {hh:mm}
  0.842886323016256,                      !- Value Until Time 25
  06:30,                                  !- Time 26 {hh:mm}
  0.843455417174955,                      !- Value Until Time 26
  06:45,                                  !- Time 27 {hh:mm}
  0.844024511333655,                      !- Value Until Time 27
  07:00,                                  !- Time 28 {hh:mm}
  0.844593605492354,                      !- Value Until Time 28
  07:15,                                  !- Time 29 {hh:mm}
  0.845162699651054,                      !- Value Until Time 29
  07:30,                                  !- Time 30 {hh:mm}
  0.845731793809753,                      !- Value Until Time 30
  07:45,                                  !- Time 31 {hh:mm}
  0.846300887968453,                      !- Value Until Time 31
  08:00,                                  !- Time 32 {hh:mm}
  0.846869982127152,                      !- Value Until Time 32
  08:15,                                  !- Time 33 {hh:mm}
  0.847439076285852,                      !- Value Until Time 33
  08:30,                                  !- Time 34 {hh:mm}
  0.848008170444552,                      !- Value Until Time 34
  08:45,                                  !- Time 35 {hh:mm}
  0.848577264603251,                      !- Value Until Time 35
  09:00,                                  !- Time 36 {hh:mm}
  0.849146358761951,                      !- Value Until Time 36
  09:15,                                  !- Time 37 {hh:mm}
  0.84971545292065,                       !- Value Until Time 37
  09:22,                                  !- Time 38 {hh:mm}
  0.85,                                   !- Value Until Time 38
  09:37,                                  !- Time 39 {hh:mm}
  0.841596477605902,                      !- Value Until Time 39
  09:52,                                  !- Time 40 {hh:mm}
  0.833192955211804,                      !- Value Until Time 40
  10:07,                                  !- Time 41 {hh:mm}
  0.824789432817706,                      !- Value Until Time 41
  10:22,                                  !- Time 42 {hh:mm}
  0.816385910423607,                      !- Value Until Time 42
  10:37,                                  !- Time 43 {hh:mm}
  0.803306600125566,                      !- Value Until Time 43
  10:52,                                  !- Time 44 {hh:mm}
  0.790227289827525,                      !- Value Until Time 44
  11:07,                                  !- Time 45 {hh:mm}
  0.777147979529484,                      !- Value Until Time 45
  11:22,                                  !- Time 46 {hh:mm}
  0.764068669231443,                      !- Value Until Time 46
  11:37,                                  !- Time 47 {hh:mm}
  0.770398373928585,                      !- Value Until Time 47
  11:52,                                  !- Time 48 {hh:mm}
  0.776728078625727,                      !- Value Until Time 48
  12:07,                                  !- Time 49 {hh:mm}
  0.783057783322869,                      !- Value Until Time 49
  12:22,                                  !- Time 50 {hh:mm}
  0.789387488020012,                      !- Value Until Time 50
  12:37,                                  !- Time 51 {hh:mm}
  0.782314176041997,                      !- Value Until Time 51
  12:52,                                  !- Time 52 {hh:mm}
  0.775240864063982,                      !- Value Until Time 52
  13:07,                                  !- Time 53 {hh:mm}
  0.768167552085967,                      !- Value Until Time 53
  13:22,                                  !- Time 54 {hh:mm}
  0.761094240107953,                      !- Value Until Time 54
  13:37,                                  !- Time 55 {hh:mm}
  0.73004568738922,                       !- Value Until Time 55
  13:52,                                  !- Time 56 {hh:mm}
  0.698997134670487,                      !- Value Until Time 56
  14:07,                                  !- Time 57 {hh:mm}
  0.667948581951754,                      !- Value Until Time 57
  14:22,                                  !- Time 58 {hh:mm}
  0.636900029233022,                      !- Value Until Time 58
  14:37,                                  !- Time 59 {hh:mm}
  0.607806862235993,                      !- Value Until Time 59
  14:52,                                  !- Time 60 {hh:mm}
  0.578713695238964,                      !- Value Until Time 60
  15:07,                                  !- Time 61 {hh:mm}
  0.549620528241936,                      !- Value Until Time 61
  15:22,                                  !- Time 62 {hh:mm}
  0.520527361244907,                      !- Value Until Time 62
  15:37,                                  !- Time 63 {hh:mm}
  0.491434194247879,                      !- Value Until Time 63
  15:52,                                  !- Time 64 {hh:mm}
  0.46234102725085,                       !- Value Until Time 64
  16:07,                                  !- Time 65 {hh:mm}
  0.433247860253822,                      !- Value Until Time 65
  16:22,                                  !- Time 66 {hh:mm}
  0.404154693256793,                      !- Value Until Time 66
  16:37,                                  !- Time 67 {hh:mm}
  0.375061526259764,                      !- Value Until Time 67
  16:52,                                  !- Time 68 {hh:mm}
  0.345968359262736,                      !- Value Until Time 68
  17:07,                                  !- Time 69 {hh:mm}
  0.316875192265707,                      !- Value Until Time 69
  17:22,                                  !- Time 70 {hh:mm}
  0.287782025268679,                      !- Value Until Time 70
  17:30,                                  !- Time 71 {hh:mm}
  0.273235441770164,                      !- Value Until Time 71
  17:45,                                  !- Time 72 {hh:mm}
  0.230116966007053,                      !- Value Until Time 72
  18:00,                                  !- Time 73 {hh:mm}
  0.186998490243942,                      !- Value Until Time 73
  18:15,                                  !- Time 74 {hh:mm}
  0.14388001448083,                       !- Value Until Time 74
  18:30,                                  !- Time 75 {hh:mm}
  0.100761538717719,                      !- Value Until Time 75
  18:45,                                  !- Time 76 {hh:mm}
  0.0892420475696504,                     !- Value Until Time 76
  19:00,                                  !- Time 77 {hh:mm}
  0.0777225564215821,                     !- Value Until Time 77
  19:15,                                  !- Time 78 {hh:mm}
  0.0662030652735138,                     !- Value Until Time 78
  19:30,                                  !- Time 79 {hh:mm}
  0.0546835741254454,                     !- Value Until Time 79
  19:45,                                  !- Time 80 {hh:mm}
  0.0533384234150337,                     !- Value Until Time 80
  20:00,                                  !- Time 81 {hh:mm}
  0.0519932727046219,                     !- Value Until Time 81
  20:15,                                  !- Time 82 {hh:mm}
  0.0506481219942101,                     !- Value Until Time 82
  20:30,                                  !- Time 83 {hh:mm}
  0.0493029712837984,                     !- Value Until Time 83
  20:45,                                  !- Time 84 {hh:mm}
  0.0495805462257949,                     !- Value Until Time 84
  21:00,                                  !- Time 85 {hh:mm}
  0.0498581211677914,                     !- Value Until Time 85
  21:15,                                  !- Time 86 {hh:mm}
  0.0501356961097879,                     !- Value Until Time 86
  21:30,                                  !- Time 87 {hh:mm}
  0.0504132710517844,                     !- Value Until Time 87
  21:45,                                  !- Time 88 {hh:mm}
  0.0502667513231951,                     !- Value Until Time 88
  22:00,                                  !- Time 89 {hh:mm}
  0.0501202315946058,                     !- Value Until Time 89
  22:15,                                  !- Time 90 {hh:mm}
  0.0499737118660165,                     !- Value Until Time 90
  22:30,                                  !- Time 91 {hh:mm}
  0.0498271921374273,                     !- Value Until Time 91
  22:45,                                  !- Time 92 {hh:mm}
  0.0412171267269993,                     !- Value Until Time 92
  23:00,                                  !- Time 93 {hh:mm}
  0.0326070613165714,                     !- Value Until Time 93
  23:15,                                  !- Time 94 {hh:mm}
  0.0239969959061435,                     !- Value Until Time 94
  23:30,                                  !- Time 95 {hh:mm}
  0.0153869304957156,                     !- Value Until Time 95
  23:45,                                  !- Time 96 {hh:mm}
  0.0141772908759669,                     !- Value Until Time 96
  24:00,                                  !- Time 97 {hh:mm}
  0.0129676512562182;                     !- Value Until Time 97

Schedule:Day:Interval,
  Office BLDG_LIGHT_EndUseData Sat Day,   !- Name
  Fractional,                             !- Schedule Type Limits Name
  Average,                                !- Interpolate to Timestep
  00:15,                                  !- Time 1 {hh:mm}
  0.0188636015821932,                     !- Value Until Time 1
  00:30,                                  !- Time 2 {hh:mm}
  0.0144274052901453,                     !- Value Until Time 2
  00:45,                                  !- Time 3 {hh:mm}
  0.00999120899809734,                    !- Value Until Time 3
  01:00,                                  !- Time 4 {hh:mm}
  0.00555501270604941,                    !- Value Until Time 4
  01:15,                                  !- Time 5 {hh:mm}
  0.00572714791705165,                    !- Value Until Time 5
  01:30,                                  !- Time 6 {hh:mm}
  0.00589928312805391,                    !- Value Until Time 6
  01:45,                                  !- Time 7 {hh:mm}
  0.00607141833905616,                    !- Value Until Time 7
  02:00,                                  !- Time 8 {hh:mm}
  0.00624355355005841,                    !- Value Until Time 8